                                  MODFLOW-NWT      
      U.S. GEOLOGICAL SURVEY MODULAR FINITE-DIFFERENCE GROUNDWATER-FLOW MODEL
                            VERSION 1.0.5 05/14/2012
                    BASED ON MODFLOW-2005 VERSION 1.9.01 05/01/2012

 LIST FILE: MODFLOW\mf_1000.lst
                         UNIT 5011

 OPENING MODFLOW\mf_1000.cbc
 FILE TYPE:DATA(BINARY)   UNIT 5009   STATUS:UNKNOWN
 FORMAT:BINARY                 ACCESS:SEQUENTIAL          

 OPENING MODFLOW\mf_1000.dis
 FILE TYPE:DIS   UNIT 5012   STATUS:OLD    
 FORMAT:FORMATTED              ACCESS:SEQUENTIAL          

 OPENING MODFLOW\mf_1000.bas
 FILE TYPE:BAS6   UNIT 5013   STATUS:OLD    
 FORMAT:FORMATTED              ACCESS:SEQUENTIAL          

 OPENING MODFLOW\mf_1000.oc
 FILE TYPE:OC   UNIT 5039   STATUS:OLD    
 FORMAT:FORMATTED              ACCESS:SEQUENTIAL          

 OPENING MODFLOW\mf_1000.fhd
 FILE TYPE:DATA   UNIT 5037   STATUS:UNKNOWN
 FORMAT:FORMATTED              ACCESS:SEQUENTIAL          

 OPENING MODFLOW\mf_1000.fdn
 FILE TYPE:DATA   UNIT 5038   STATUS:UNKNOWN
 FORMAT:FORMATTED              ACCESS:SEQUENTIAL          

 OPENING MODFLOW\mf_1000.nwt
 FILE TYPE:NWT   UNIT 5133   STATUS:OLD    
 FORMAT:FORMATTED              ACCESS:SEQUENTIAL          

 OPENING MODFLOW\mf_1000.upw
 FILE TYPE:UPW   UNIT 5134   STATUS:OLD    
 FORMAT:FORMATTED              ACCESS:SEQUENTIAL          

 OPENING MODFLOW\mf_1000.riv
 FILE TYPE:RIV   UNIT 5021   STATUS:OLD    
 FORMAT:FORMATTED              ACCESS:SEQUENTIAL          

 OPENING MODFLOW\mf_1000.rch
 FILE TYPE:RCH   UNIT 5024   STATUS:OLD    
 FORMAT:FORMATTED              ACCESS:SEQUENTIAL          
# EVT	5025	MODFLOW\mf_1000.evt                                                                                                                                                                                                                                                                              

 OPENING MODFLOW\mf_1000.zon
 FILE TYPE:ZONE   UNIT 5015   STATUS:OLD    
 FORMAT:FORMATTED              ACCESS:SEQUENTIAL          

 OPENING MODFLOW\mf_1000.pval
 FILE TYPE:PVAL   UNIT 5052   STATUS:OLD    
 FORMAT:FORMATTED              ACCESS:SEQUENTIAL          

 BAS -- BASIC PACKAGE, VERSION 7, 5/2/2005 INPUT READ FROM UNIT 5013
 
 MODFLOW was compiled using mixed precision
 Precision of REAL variables:           6
 Precision of DOUBLE PRECISION variables:          15

 DISCRETIZATION INPUT DATA READ FROM UNIT 5012
 # Discretization File created on 9/8/2020 by ModelMuse version 4.2.0.0.
 # Animas MODFLOW model steady state for linking with APEX model
 # developed by Seonggyu Park (Last modified: 08/27/2020)
 # Upper left corner: (-1076792.75079734, 1719150.01173572)
 # Lower left corner: (-1076792.75079734, 1588150.01173572)
 # Upper right corner: (-1000792.75079734, 1719150.01173572)
 # Lower right corner: (-1000792.75079734, 1588150.01173572)
 # Grid angle (in degrees counterclockwise): 0
    1 LAYERS       131 ROWS        76 COLUMNS
    1 STRESS PERIOD(S) IN SIMULATION
 MODEL TIME UNIT IS DAYS
 MODEL LENGTH UNIT IS METERS
  Confining bed flag for each layer:
   0

                     DELR =   1000.00    

                     DELC =   1000.00    



           TOP ELEVATION OF LAYER 1
 READING ON UNIT 5012 WITH FORMAT: (FREE)              

            1           2           3           4           5           6           7           8           9          10
           11          12          13          14          15          16          17          18          19          20
           21          22          23          24          25          26          27          28          29          30
           31          32          33          34          35          36          37          38          39          40
           41          42          43          44          45          46          47          48          49          50
           51          52          53          54          55          56          57          58          59          60
           61          62          63          64          65          66          67          68          69          70
           71          72          73          74          75          76
 ........................................................................................................................
   1  -3.0566E+04 -3.0010E+04 -2.8961E+04 -2.7350E+04 -2.5101E+04 -2.2133E+04 -1.8362E+04 -1.3694E+04  -8034.      -1845.    
        4237.       4655.       4942.       4868.       4802.       4747.       4704.       4671.       4647.       4632.    
        4624.       4623.       4628.       4638.       4652.       4670.       4690.       4712.       4736.       4759.    
        4782.       4803.       4822.       4838.       4850.       4857.       4859.       4854.       4842.       4822.    
        4793.       4754.       4705.       4644.       4571.       4485.       4385.       4271.       4141.       3995.    
        3831.       3650.       3457.       3655.       3915.       4052.       3997.       3848.       3643.       3419.    
        3212.       3060.       3000.       3069.       3304.       3637.       3605.       3415.       3580.       3592.    
        3647.       3689.       3856.       3776.       3880.       3832.    
   2  -2.8282E+04 -2.8295E+04 -2.7903E+04 -2.7040E+04 -2.5635E+04 -2.3609E+04 -2.0879E+04 -1.7358E+04 -1.2949E+04  -7551.    
       -1626.       4192.       4596.       4869.       4795.       4730.       4676.       4633.       4600.       4577.    
        4561.       4554.       4553.       4558.       4568.       4582.       4600.       4620.       4643.       4666.    
        4689.       4712.       4733.       4751.       4767.       4779.       4785.       4786.       4781.       4768.    
        4748.       4718.       4679.       4629.       4567.       4494.       4407.       4306.       4191.       4060.    
        3913.       3748.       3566.       3479.       3600.       3705.       3779.       3917.       3901.       3860.    
        3616.       3223.       3007.       3060.       3332.       3714.       3640.       3545.       3759.       3748.    
        3709.       3632.       3786.       3985.       3986.       3906.    
   3  -2.5441E+04 -2.5905E+04 -2.6051E+04 -2.5816E+04 -2.5132E+04 -2.3927E+04 -2.2121E+04 -1.9627E+04 -1.6354E+04 -1.2203E+04
       -7069.      -1407.       4147.       4538.       4797.       4723.       4658.       4604.       4562.       4529.    
        4506.       4491.       4484.       4483.       4488.       4498.       4513.       4530.       4551.       4573.    
        4596.       4619.       4641.       4662.       4681.       4696.       4707.       4713.       4714.       4708.    
        4695.       4674.       4643.       4603.       4553.       4491.       4416.       4329.       4227.       4111.    
        3979.       3831.       3665.       3482.       3285.       3524.       3750.       3985.       3839.       3518.    
        3235.       3096.       3152.       3275.       3317.       3813.       3751.       3645.       3874.       3738.    
        3730.       3600.       3804.       3877.       3814.       3852.    
   4  -2.2213E+04 -2.3007E+04 -2.3567E+04 -2.3836E+04 -2.3749E+04 -2.3238E+04 -2.2228E+04 -2.0637E+04 -1.8377E+04 -1.5351E+04
      -1.1458E+04  -6586.      -1188.       4102.       4479.       4724.       4650.       4586.       4533.       4491.    
        4459.       4436.       4421.       4414.       4413.       4418.       4429.       4443.       4461.       4481.    
        4503.       4526.       4549.       4571.       4592.       4610.       4625.       4636.       4641.       4642.    
        4635.       4622.       4600.       4569.       4528.       4477.       4414.       4339.       4250.       4148.    
        4031.       3898.       3734.       3611.       3426.       3709.       3704.       3931.       3812.       3462.    
        3217.       3311.       3375.       3536.       3461.       3823.       3869.       3777.       3722.       3703.    
        3575.       3525.       3494.       3755.       3875.       3734.    
   5  -1.8782E+04 -1.9782E+04 -2.0631E+04 -2.1275E+04 -2.1655E+04 -2.1707E+04 -2.1360E+04 -2.0539E+04 -1.9159E+04 -1.7129E+04
      -1.4349E+04 -1.0712E+04  -6103.      -969.2       4058.       4420.       4652.       4578.       4514.       4461.    
        4420.       4388.       4365.       4351.       4344.       4343.       4348.       4359.       4373.       4391.    
        4411.       4433.       4456.       4479.       4501.       4521.       4539.       4553.       4564.       4569.    
        4569.       4562.       4548.       4526.       4494.       4453.       4401.       4337.       4261.       4172.    
        4069.       3766.       3923.       3691.       3606.       3847.       3855.       3845.       3605.       3403.    
        3359.       3570.       3525.       3639.       3604.       3640.       3792.       3915.       3867.       3726.    
        3754.       3700.       3392.       3701.       3972.       3877.    
   6  -1.5343E+04 -1.6425E+04 -1.7434E+04 -1.8321E+04 -1.9034E+04 -1.9512E+04 -1.9691E+04 -1.9501E+04 -1.8861E+04 -1.7687E+04
      -1.5884E+04 -1.3348E+04  -9967.      -5621.      -750.3       4013.       4361.       4579.       4505.       4442.    
        4390.       4348.       4317.       4295.       4280.       4273.       4273.       4279.       4289.       4304.    
        4321.       4342.       4363.       4386.       4409.       4430.       4450.       4468.       4482.       4492.    
        4497.       4497.       4489.       4475.       4452.       4419.       4377.       4325.       4260.       4183.    
        3785.       3890.       3910.       3704.       3761.       3908.       3909.       3700.       3495.       3438.    
        3591.       3767.       3632.       3646.       3531.       3525.       3750.       3886.       3913.       3782.    
        3775.       3599.       3397.       3564.       3842.       3870.    
   7  -1.2103E+04 -1.3142E+04 -1.4181E+04 -1.5179E+04 -1.6086E+04 -1.6850E+04 -1.7413E+04 -1.7707E+04 -1.7662E+04 -1.7197E+04
      -1.6222E+04 -1.4642E+04 -1.2347E+04  -9222.      -5138.      -531.4       3968.       4303.       4507.       4433.    
        4370.       4318.       4277.       4246.       4224.       4210.       4203.       4203.       4209.       4219.    
        4234.       4252.       4272.       4294.       4316.       4339.       4360.       4380.       4397.       4411.    
        4421.       4425.       4424.       4416.       4401.       4378.       4345.       4302.       4248.       3916.    
        3938.       3876.       3912.       3811.       3873.       3931.       3800.       3542.       3366.       3512.    
        3687.       3539.       3520.       3415.       3371.       3540.       3859.       3755.       3815.       3829.    
        3796.       3693.       3333.       3518.       3876.       3939.    
   8   -9282.     -1.0151E+04 -1.1091E+04 -1.2064E+04 -1.3028E+04 -1.3936E+04 -1.4734E+04 -1.5364E+04 -1.5759E+04 -1.5848E+04
      -1.5547E+04 -1.4766E+04 -1.3403E+04 -1.1348E+04  -8477.      -4655.      -312.6       3923.       4244.       4434.    
        4361.       4298.       4247.       4206.       4175.       4154.       4140.       4133.       4133.       4139.    
        4150.       4164.       4182.       4202.       4224.       4246.       4268.       4290.       4309.       4326.    
        4340.       4349.       4353.       4352.       4343.       4328.       4303.       4270.       3851.       3579.    
        3671.       3802.       3939.       3912.       3951.       3749.       3475.       3301.       3404.       3590.    
        3779.       3550.       3277.       3319.       3325.       3542.       3811.       3810.       3625.       3562.    
        3740.       3606.       3310.       3793.       3820.       4025.    
   9   -7108.      -7684.      -8396.      -9211.     -1.0092E+04 -1.0998E+04 -1.1883E+04 -1.2694E+04 -1.3373E+04 -1.3854E+04
      -1.4062E+04 -1.3915E+04 -1.3319E+04 -1.2170E+04 -1.0350E+04  -7732.      -4173.      -93.70       3878.       4185.    
        4362.       4288.       4226.       4175.       4135.       4105.       4083.       4069.       4063.       4063.    
        4069.       4080.       4095.       4112.       4132.       4154.       4176.       4198.       4219.       4239.    
        4255.       4269.       4277.       4281.       4279.       4270.       4254.       3779.       3577.       3193.    
        3241.       3426.       3892.       3933.       3817.       3687.       3453.       3199.       3425.       3719.    
        3683.       3441.       3205.       3552.       3468.       3641.       3907.       3790.       3536.       3317.    
        3314.       3188.       3353.       3855.       4006.       3944.    
  10   -5822.      -5984.      -6341.      -6865.      -7525.      -8285.      -9106.      -9943.     -1.0743E+04 -1.1450E+04
      -1.1997E+04 -1.2310E+04 -1.2304E+04 -1.1884E+04 -1.0941E+04  -9354.      -6988.      -3690.       125.2       3833.    
        4126.       4289.       4216.       4154.       4104.       4064.       4034.       4012.       3999.       3993.    
        3994.       3999.       4010.       4025.       4043.       4063.       4084.       4106.       4128.       4149.    
        4168.       4184.       4197.       4206.       4209.       4207.       3712.       3536.       3351.       3231.    
        3179.       3312.       3611.       3797.       3784.       3730.       3516.       3174.       3458.       3661.    
        3534.       3223.       3329.       3716.       3567.       3767.       3714.       3531.       3467.       3638.    
        3476.       3078.       3519.       3879.       3948.       3777.    
  11   -5133.      -5158.      -5180.      -5285.      -5588.      -6060.      -6668.      -7374.      -8133.      -8897.    
       -9607.     -1.0199E+04 -1.0598E+04 -1.0719E+04 -1.0463E+04  -9719.      -8360.      -6243.      -3207.       344.0    
        3788.       4068.       4216.       4144.       4083.       4033.       3993.       3963.       3942.       3929.    
        3923.       3924.       3930.       3940.       3955.       3973.       3993.       4014.       4036.       4058.    
        4078.       4097.       4113.       4126.       4134.       3652.       3653.       3354.       3288.       3546.    
        3310.       3549.       3717.       3495.       3384.       3334.       3297.       3156.       3420.       3649.    
        3406.       3135.       3365.       3771.       3873.       3852.       3891.       3819.       3803.       3571.    
        3133.       3075.       3467.       3647.       3870.       3833.    
  12   -4482.      -4502.      -4519.      -4533.      -4545.      -4602.      -4850.      -5270.      -5826.      -6476.    
       -7172.      -7858.      -8471.      -8935.      -9164.      -9059.      -8505.      -7369.      -5499.      -2725.    
        562.9       3743.       4009.       4144.       4072.       4011.       3961.       3922.       3892.       3872.    
        3859.       3853.       3854.       3860.       3871.       3885.       3903.       3923.       3944.       3966.    
        3988.       4008.       4027.       4042.       3594.       3474.       3678.       3561.       3434.       3729.    
        3491.       3838.       3661.       3475.       3371.       3300.       3175.       3156.       3490.       3578.    
        3300.       3093.       3381.       3741.       3803.       3693.       3889.       3841.       3684.       3287.    
        2990.       3198.       3339.       3447.       3832.       3934.    
  13   -3865.      -3881.      -3893.      -3903.      -3909.      -3913.      -3914.      -3934.      -4127.      -4495.    
       -4999.      -5592.      -6222.      -6826.      -7329.      -7647.      -7677.      -7301.      -6381.      -4756.    
       -2242.       781.8       3698.       3950.       4071.       3999.       3939.       3890.       3851.       3822.    
        3801.       3788.       3783.       3784.       3790.       3801.       3816.       3833.       3853.       3874.    
        3896.       3917.       3938.       3538.       3216.       3362.       3517.       3808.       3659.       3930.    
        3866.       3787.       3710.       3697.       3539.       3567.       3213.       3154.       3585.       3589.    
        3232.       3044.       3283.       3672.       3619.       3548.       3735.       3531.       3313.       3021.    
        3188.       3219.       3640.       3578.       3790.       3897.    
  14   -3282.      -3294.      -3302.      -3307.      -3309.      -3308.      -3304.      -3297.      -3288.      -3281.    
       -3419.      -3734.      -4186.      -4722.      -5282.      -5795.      -6175.      -6321.      -6109.      -5397.    
       -4013.      -1759.       1001.       3653.       3891.       3999.       3927.       3867.       3818.       3780.    
        3751.       3731.       3718.       3713.       3714.       3720.       3731.       3746.       3764.       3783.    
        3804.       3826.       3485.       3212.       3118.       3274.       3503.       3844.       3907.       3846.    
        3760.       3701.       3561.       3774.       3565.       3385.       3233.       3022.       3241.       3404.    
        3373.       3034.       3177.       3474.       3240.       3270.       3305.       3129.       2988.       3271.    
        3527.       3519.       3483.       3780.       3755.       3846.    
  15   -2731.      -2740.      -2745.      -2746.      -2744.      -2739.      -2730.      -2719.      -2704.      -2687.    
       -2667.      -2644.      -2725.      -2988.      -3387.      -3864.      -4351.      -4763.      -4998.      -4933.    
       -4418.      -3271.      -1277.       1220.       3609.       3833.       3926.       3855.       3795.       3747.    
        3709.       3680.       3660.       3648.       3643.       3644.       3650.       3661.       3676.       3694.    
        3713.       3440.       3409.       3381.       3211.       3165.       3485.       3865.       3952.       3770.    
        3610.       3374.       3191.       3339.       3216.       3020.       3032.       3010.       2946.       3030.    
        3315.       3132.       2965.       3012.       2927.       2952.       3035.       3117.       3114.       3461.    
        3826.       3855.       3673.       3707.       3795.       3881.    
  16   -2212.      -2218.      -2219.      -2217.      -2212.      -2203.      -2190.      -2175.      -2156.      -2134.    
       -2109.      -2081.      -2051.      -2017.      -2046.      -2257.      -2603.      -3019.      -3425.      -3720.    
       -3779.      -3446.      -2530.      -794.1       1438.       3564.       3774.       3854.       3783.       3724.    
        3675.       3638.       3609.       3590.       3578.       3573.       3574.       3581.       3592.       3606.    
        3407.       3647.       3673.       3532.       3611.       3373.       3515.       3923.       3975.       3878.    
        3716.       3236.       3201.       3104.       3114.       3356.       3489.       3383.       3083.       2969.    
        2950.       2900.       2845.       2961.       3137.       3213.       3211.       3558.       3351.       3163.    
        3539.       3867.       3769.       3640.       3894.       3829.    
  17   -1724.      -1727.      -1726.      -1721.      -1712.      -1700.      -1684.      -1665.      -1642.      -1616.    
       -1586.      -1554.      -1519.      -1480.      -1439.      -1395.      -1382.      -1540.      -1833.      -2185.    
       -2500.      -2653.      -2484.      -1790.      -311.5       1657.       3519.       3715.       3781.       3711.    
        3652.       3604.       3567.       3539.       3519.       3507.       3503.       3504.       3511.       3395.    
        3536.       3506.       3758.       3895.       3917.       3680.       3677.       3856.       3807.       3589.    
        3338.       3285.       3580.       3474.       3428.       3629.       3630.       3264.       3384.       3308.    
        3035.       2834.       3006.       3311.       3456.       3507.       3277.       3713.       3722.       3222.    
        3493.       3828.       3804.       3672.       3872.       3829.    
  18   -1264.      -1265.      -1262.      -1255.      -1244.      -1229.      -1210.      -1187.      -1161.      -1131.    
       -1098.      -1062.      -1022.      -978.9      -933.0      -884.2      -832.5      -778.1      -733.2      -838.2    
       -1077.      -1361.      -1568.      -1537.      -1052.       171.2       1876.       3474.       3657.       3708.    
        3638.       3580.       3533.       3496.       3468.       3449.       3437.       3433.       3410.       3348.    
        3334.       3408.       3511.       3722.       3978.       3849.       3803.       3666.       3517.       3326.    
        3445.       3578.       3632.       3593.       3734.       3714.       3461.       3534.       3742.       3599.    
        3321.       2879.       3231.       3687.       3771.       3735.       3634.       3842.       3769.       3298.    
        3676.       3853.       3824.       3818.       3757.       3750.    
  19   -833.2      -832.9      -828.1      -819.0      -805.7      -788.3      -766.8      -741.5      -712.2      -679.3    
       -642.7      -602.6      -559.0      -512.1      -461.9      -408.6      -352.2      -292.9      -230.7      -165.8    
       -99.54      -150.7      -335.4      -541.6      -610.8      -317.6       653.8       2095.       3429.       3598.    
        3636.       3566.       3508.       3461.       3425.       3397.       3378.       3466.       3244.       3369.    
        3347.       3440.       3607.       3857.       3836.       3618.       3820.       3771.       3615.       3460.    
        3765.       3846.       3724.       3669.       3778.       3606.       3419.       3586.       3843.       3624.    
        3263.       2953.       3314.       3594.       3738.       3898.       3830.       3883.       3674.       3325.    
        3785.       3828.       3898.       3840.       3800.       3593.    
  20   -429.4      -428.1      -422.1      -411.6      -396.7      -377.4      -353.9      -326.2      -294.5      -258.9    
       -219.4      -176.1      -129.2      -78.67      -24.72       32.60       93.19       157.0       223.8       293.6    
        366.3       441.8       519.9       522.1       393.7       280.7       411.3       1136.       2314.       3384.    
        3539.       3563.       3494.       3437.       3390.       3354.       3318.       3331.       3488.       3319.    
        3315.       3394.       3532.       3758.       3905.       3493.       3832.       3908.       3669.       3606.    
        3877.       3633.       3570.       3562.       3642.       3673.       3519.       3731.       3820.       3671.    
        3237.       2957.       3186.       3501.       3699.       3840.       3887.       3789.       3546.       3420.    
        3776.       3851.       3731.       3786.       3808.       3751.    
  21   -51.65      -49.84      -43.18      -31.77      -15.70       4.929       30.02       59.46       93.18       131.1    
        173.0       218.9       268.7       322.3       379.6       440.4       504.8       572.5       643.5       717.7    
        795.0       875.3       958.5       1044.       1133.       1180.       1112.       1130.       1619.       2533.    
        3339.       3480.       3491.       3422.       3365.       3317.       3427.       3488.       3423.       3276.    
        3310.       3446.       3579.       3807.       3693.       3469.       3669.       3739.       3718.       3675.    
        3562.       3391.       3266.       3316.       3442.       3409.       3567.       3747.       3620.       3377.    
        3164.       2948.       3264.       3420.       3527.       3776.       3916.       3746.       3644.       3513.    
        3707.       3783.       3659.       3700.       3879.       3884.    
  22    301.0       302.8       309.7       321.6       338.3       359.8       386.0       416.7       452.0       491.6    
        535.5       583.6       635.8       692.0       752.1       816.0       883.6       954.8       1029.       1108.    
        1189.       1274.       1361.       1452.       1546.       1642.       1742.       1824.       1826.       2102.    
        2752.       3294.       3422.       3418.       3311.       3228.       3204.       3460.       3483.       3317.    
        3368.       3482.       3619.       3712.       3534.       3327.       3511.       3661.       3739.       3693.    
        3651.       3535.       3312.       3197.       3335.       3333.       3508.       3526.       3459.       3286.    
        3151.       2946.       3374.       3544.       3674.       3745.       3925.       3839.       3707.       3680.    
        3722.       3682.       3593.       3512.       3664.       3859.    
  23    629.7       631.0       637.7       649.5       666.4       688.3       715.1       746.6       782.9       823.8    
        869.2       919.0       973.1       1031.       1094.       1160.       1231.       1305.       1383.       1464.    
        1549.       1638.       1730.       1825.       1923.       2024.       2128.       2235.       2345.       2453.    
        2584.       2971.       3249.       3427.       3457.       3338.       3293.       3344.       3451.       3350.    
        3362.       3442.       3597.       3490.       3411.       3175.       3556.       3701.       3592.       3664.    
        3625.       3655.       3405.       3144.       3238.       3393.       3391.       3353.       3285.       3222.    
        3212.       2936.       3349.       3571.       3649.       3748.       3841.       3873.       3740.       3761.    
        3845.       3774.       3623.       3526.       3514.       3792.    
  24    935.4       935.8       941.7       953.0       969.6       991.4       1018.       1050.       1087.       1129.    
        1175.       1226.       1282.       1342.       1406.       1474.       1547.       1624.       1704.       1789.    
        1877.       1969.       2065.       2163.       2266.       2371.       2480.       2591.       2706.       2824.    
        2944.       3067.       3126.       3249.       3482.       3451.       3430.       3486.       3513.       3465.    
        3425.       3476.       3608.       3507.       3203.       3164.       3371.       3403.       3446.       3662.    
        3477.       3548.       3352.       3111.       3254.       3272.       3257.       3310.       3272.       3151.    
        3099.       2907.       3214.       3438.       3632.       3717.       3796.       3819.       3728.       3788.    
        3835.       3794.       3706.       3572.       3517.       3716.    
  25    1219.       1218.       1223.       1233.       1249.       1270.       1297.       1329.       1366.       1408.    
        1454.       1506.       1563.       1624.       1689.       1760.       1834.       1913.       1996.       2083.    
        2174.       2268.       2367.       2469.       2575.       2684.       2797.       2913.       3032.       3154.    
        3279.       3440.       3442.       3304.       3468.       3514.       3534.       3590.       3446.       3321.    
        3296.       3504.       3485.       3357.       3160.       3075.       3140.       3248.       3415.       3580.    
        3440.       3341.       3232.       3052.       3128.       3194.       3262.       3308.       3252.       3274.    
        3263.       2853.       3119.       3450.       3764.       3759.       3819.       3715.       3597.       3691.    
        3815.       3825.       3730.       3601.       3689.       3640.    
  26    1482.       1479.       1482.       1491.       1506.       1526.       1552.       1583.       1619.       1661.    
        1708.       1760.       1817.       1879.       1945.       2017.       2093.       2173.       2257.       2346.    
        2439.       2537.       2638.       2743.       2852.       2964.       3080.       3200.       3323.       3449.    
        3579.       3469.       3672.       3453.       3417.       3249.       3338.       3337.       3160.       3168.    
        3367.       3532.       3520.       3302.       3136.       2969.       3246.       3471.       3505.       3486.    
        3401.       3303.       3117.       3000.       3150.       3267.       3378.       3434.       3464.       3564.    
        3429.       2881.       2890.       3054.       3285.       3348.       3512.       3417.       3364.       3648.    
        3798.       3826.       3724.       3721.       3699.       3564.    
  27    1726.       1720.       1721.       1728.       1741.       1760.       1784.       1814.       1850.       1891.    
        1937.       1989.       2046.       2108.       2175.       2247.       2324.       2405.       2491.       2581.    
        2676.       2775.       2879.       2986.       3097.       3213.       3332.       3455.       3581.       3711.    
        3432.       3536.       3674.       3593.       3366.       3139.       3171.       3167.       3043.       3193.    
        3281.       3546.       3546.       3438.       3164.       2965.       3252.       3602.       3666.       3554.    
        3394.       3175.       2991.       2989.       3210.       3379.       3524.       3620.       3716.       3637.    
        3210.       2822.       2970.       3143.       3042.       3053.       3145.       3315.       3372.       3483.    
        3753.       3815.       3798.       3799.       3636.       3495.    
  28    1951.       1942.       1940.       1945.       1955.       1972.       1995.       2023.       2057.       2097.    
        2143.       2194.       2250.       2312.       2379.       2451.       2528.       2610.       2697.       2788.    
        2884.       2985.       3090.       3199.       3313.       3430.       3552.       3678.       3807.       3940.    
        3386.       3547.       3469.       3444.       3356.       3101.       3020.       2997.       2999.       3102.    
        3294.       3570.       3552.       3310.       3114.       2922.       3162.       3340.       3437.       3339.    
        3211.       3190.       2996.       3032.       3282.       3451.       3592.       3737.       3768.       3496.    
        3064.       2870.       3267.       3425.       3551.       3318.       3530.       3658.       3751.       3460.    
        3665.       3785.       3784.       3619.       3472.       3503.    
  29    2158.       2146.       2141.       2143.       2150.       2165.       2185.       2211.       2244.       2282.    
        2326.       2376.       2432.       2493.       2559.       2631.       2708.       2790.       2877.       2969.    
        3066.       3167.       3273.       3384.       3499.       3619.       3742.       3870.       4002.       3304.    
        3362.       3239.       3269.       3268.       3258.       3152.       3000.       2916.       3099.       3187.    
        3305.       3568.       3659.       3466.       3131.       2922.       2943.       3119.       3202.       3046.    
        3158.       3339.       2991.       2990.       3252.       3450.       3593.       3708.       3741.       3415.    
        2992.       2936.       3550.       3616.       3820.       3598.       3686.       3814.       3854.       3753.    
        3930.       3907.       3831.       3677.       3587.       3619.    
  30    2348.       2333.       2324.       2322.       2327.       2338.       2356.       2380.       2410.       2446.    
        2488.       2536.       2590.       2650.       2716.       2786.       2863.       2944.       3031.       3123.    
        3221.       3323.       3429.       3541.       3657.       3778.       3904.       4033.       4167.       3137.    
        2963.       3045.       3096.       3125.       3147.       3049.       2937.       2948.       3095.       3177.    
        3225.       3401.       3459.       3392.       3257.       3090.       2795.       2983.       2954.       2908.    
        3149.       3384.       2999.       3074.       3434.       3447.       3593.       3678.       3417.       3180.    
        2875.       2882.       3470.       3847.       3908.       3911.       3742.       3800.       3880.       3907.    
        3913.       3769.       3802.       3810.       3708.       3742.    
  31    2524.       2504.       2491.       2485.       2486.       2494.       2508.       2529.       2557.       2590.    
        2630.       2676.       2728.       2786.       2850.       2920.       2995.       3076.       3162.       3254.    
        3350.       3452.       3560.       3672.       3789.       3910.       4037.       4168.       3176.       2857.    
        2860.       2922.       3022.       3084.       3130.       2974.       2866.       2911.       3075.       3052.    
        3098.       3230.       3252.       3362.       3296.       3127.       2811.       2778.       2820.       2811.    
        3009.       3206.       2899.       3336.       3733.       3595.       3610.       3684.       3306.       2777.    
        2742.       2995.       3338.       3512.       3542.       3709.       3869.       3934.       3869.       3720.    
        3790.       3617.       3640.       3750.       3879.       3824.    
  32    2684.       2660.       2643.       2632.       2629.       2633.       2644.       2661.       2685.       2716.    
        2753.       2796.       2846.       2901.       2963.       3031.       3105.       3184.       3269.       3360.    
        3456.       3558.       3665.       3777.       3894.       4016.       4143.       4275.       2985.       2943.    
        2984.       3019.       3178.       3151.       3153.       3043.       2863.       2846.       2967.       2953.    
        3074.       3083.       3170.       3234.       3181.       3192.       3008.       2693.       2703.       2807.    
        2914.       2933.       2938.       3461.       3813.       3632.       3379.       3400.       2861.       2762.    
        3063.       3255.       3333.       3408.       3499.       3416.       3506.       3616.       3824.       3788.    
        3504.       3437.       3353.       3518.       3994.       3869.    
  33    2832.       2802.       2780.       2765.       2757.       2756.       2763.       2776.       2796.       2823.    
        2857.       2897.       2944.       2997.       3057.       3122.       3194.       3271.       3355.       3444.    
        3539.       3640.       3746.       3858.       3974.       4097.       4224.       3044.       3085.       3093.    
        3115.       3232.       3245.       3089.       3053.       2987.       2848.       2765.       2801.       2836.    
        2904.       2987.       3099.       3043.       3029.       3062.       3072.       2709.       2642.       2718.    
        2864.       2865.       3115.       3603.       3709.       3725.       3265.       3025.       2698.       2888.    
        3149.       3227.       3367.       3756.       3805.       3747.       3791.       3840.       3894.       3840.    
        3790.       3491.       3258.       3482.       3843.       3879.    
  34    2967.       2932.       2904.       2883.       2871.       2865.       2867.       2876.       2892.       2915.    
        2945.       2981.       3025.       3074.       3131.       3194.       3263.       3338.       3420.       3507.    
        3601.       3700.       3805.       3915.       4031.       4153.       4279.       2918.       2981.       3208.    
        3253.       3211.       3087.       3086.       2944.       2941.       2753.       2790.       2859.       2865.    
        2868.       2884.       2879.       2895.       2927.       2980.       2940.       2668.       2572.       2671.    
        2859.       2816.       3221.       3447.       3712.       3578.       3103.       2655.       2800.       3153.    
        3539.       3628.       3421.       3399.       3719.       3904.       3937.       3875.       3694.       3603.    
        3813.       3642.       3348.       3702.       3828.       3857.    
  35    3000.       3025.       3016.       2990.       2971.       2960.       2957.       2961.       2972.       2990.    
        3016.       3049.       3088.       3134.       3187.       3247.       3313.       3386.       3465.       3550.    
        3641.       3738.       3841.       3950.       4065.       4186.       4312.       3022.       3151.       3212.    
        3178.       3123.       2997.       3012.       2919.       2835.       2763.       2950.       3007.       3039.    
        3056.       3063.       3086.       3127.       3102.       3002.       2777.       2665.       2511.       2628.    
        2689.       2769.       3118.       3464.       3589.       3412.       2998.       2590.       2890.       3286.    
        3464.       3491.       3828.       3626.       3390.       3594.       3893.       3905.       3811.       3577.    
        3430.       3625.       3297.       4042.       3786.       3807.    
  36    2863.       2943.       3008.       3049.       3058.       3043.       3034.       3032.       3038.       3052.    
        3072.       3101.       3136.       3178.       3227.       3283.       3345.       3415.       3491.       3573.    
        3662.       3756.       3857.       3965.       4078.       4196.       3215.       3142.       3209.       3097.    
        3016.       3009.       3001.       2882.       2895.       2773.       2760.       2849.       2939.       3008.    
        3137.       3195.       3162.       3203.       3203.       3135.       2773.       2747.       2591.       2883.    
        2978.       3046.       3127.       3077.       3096.       3047.       2655.       2642.       2967.       3430.    
        3745.       3870.       3680.       3810.       3626.       3657.       3823.       3719.       3694.       3578.    
        3517.       3672.       3185.       3890.       3719.       3732.    
  37    2668.       2759.       2850.       2936.       3010.       3066.       3094.       3091.       3092.       3100.    
        3115.       3138.       3168.       3206.       3251.       3302.       3361.       3427.       3499.       3578.    
        3664.       3756.       3854.       3959.       4069.       4186.       3139.       3246.       3209.       3030.    
        2922.       2907.       2892.       2833.       2781.       2721.       2813.       2943.       3019.       3068.    
        3164.       3156.       3128.       3124.       3168.       2955.       2711.       2760.       2605.       2876.    
        3003.       2821.       2578.       2570.       2609.       2618.       2608.       2705.       2990.       3362.    
        3630.       3817.       3865.       3994.       3885.       3947.       3816.       3633.       3395.       3213.    
        3456.       3577.       3192.       3631.       3629.       3633.    
  38    2530.       2595.       2669.       2752.       2840.       2928.       3010.       3078.       3123.       3135.    
        3145.       3163.       3188.       3220.       3260.       3307.       3361.       3423.       3491.       3566.    
        3648.       3737.       3832.       3934.       4042.       3099.       3134.       3237.       3217.       3107.    
        3019.       2959.       2816.       2814.       2756.       2731.       2883.       2948.       2945.       2997.    
        3115.       3235.       3188.       3106.       2976.       2730.       2694.       2764.       2657.       2546.    
        2568.       2477.       2698.       2777.       2804.       2839.       3038.       3086.       2903.       3126.    
        3475.       3606.       3899.       3963.       3791.       4052.       3965.       3832.       3715.       2956.    
        3214.       3348.       3529.       3533.       3521.       3515.    
  39    2443.       2502.       2564.       2627.       2691.       2760.       2839.       2924.       3009.       3085.    
        3145.       3175.       3194.       3221.       3255.       3297.       3347.       3403.       3467.       3538.    
        3616.       3701.       3792.       3891.       3996.       3101.       3184.       3284.       3205.       3000.    
        2972.       2946.       2847.       2730.       2673.       2794.       2844.       2883.       3002.       3108.    
        3206.       3194.       3186.       3198.       2936.       2684.       2637.       2637.       2613.       2436.    
        2626.       2831.       3122.       3287.       3415.       3358.       3470.       3443.       3267.       3063.    
        3321.       3620.       3699.       3501.       3596.       3993.       3840.       3880.       3761.       2806.    
        3049.       3101.       3939.       3419.       3397.       3380.    
  40    2369.       2424.       2481.       2539.       2599.       2660.       2723.       2787.       2854.       2928.    
        3009.       3091.       3162.       3209.       3238.       3275.       3319.       3370.       3429.       3495.    
        3568.       3649.       3736.       3831.       2993.       3027.       3123.       3263.       3152.       2988.    
        2877.       2877.       2830.       2719.       2647.       2740.       2839.       2983.       3072.       3068.    
        3172.       3174.       3123.       3174.       2903.       2652.       2582.       2575.       2474.       2619.    
        2967.       3090.       3208.       3366.       3497.       3612.       3747.       3660.       3514.       3370.    
        3266.       3319.       3373.       3528.       3728.       3863.       3879.       3542.       3820.       2759.    
        3035.       2884.       3440.       3293.       3259.       3232.    
  41    2306.       2357.       2410.       2464.       2519.       2576.       2635.       2694.       2756.       2818.    
        2883.       2949.       3019.       3097.       3174.       3237.       3278.       3324.       3377.       3438.    
        3507.       3582.       3665.       3755.       3180.       3129.       3165.       3280.       3105.       2920.    
        2948.       2857.       2804.       2674.       2693.       2850.       2940.       3003.       2992.       2974.    
        3100.       3132.       3102.       3149.       2852.       2618.       2544.       2567.       2515.       2536.    
        2940.       3202.       3338.       3357.       3463.       3596.       3698.       3776.       3614.       3596.    
        3676.       3750.       3730.       3848.       3784.       3678.       3873.       3552.       3302.       2812.    
        2976.       2908.       3210.       3157.       3111.       3072.    
  42    2253.       2301.       2350.       2400.       2452.       2505.       2559.       2614.       2671.       2730.    
        2789.       2851.       2914.       2978.       3044.       3112.       3186.       3259.       3313.       3369.    
        3431.       3502.       3580.       3215.       3164.       3327.       3300.       3237.       3097.       3028.    
        2905.       2824.       2752.       2678.       2690.       2768.       2892.       2893.       2899.       2942.    
        3032.       3028.       3041.       3108.       2750.       2583.       2554.       2586.       2360.       2589.    
        3046.       3244.       3375.       3434.       3537.       3567.       3666.       3784.       3746.       3701.    
        3714.       3762.       3764.       3769.       3825.       3573.       3565.       3605.       3247.       2962.    
        2942.       3411.       3081.       3015.       2957.       2905.    
  43    2209.       2254.       2299.       2346.       2394.       2444.       2494.       2546.       2599.       2653.    
        2709.       2766.       2824.       2884.       2945.       3008.       3073.       3139.       3207.       3277.    
        3344.       3409.       3481.       3345.       3215.       3369.       3416.       3335.       3302.       3098.    
        2984.       2899.       2790.       2661.       2593.       2830.       2884.       2788.       2855.       2990.    
        2967.       2975.       3073.       3024.       2628.       2553.       2555.       2619.       2391.       2596.    
        2885.       3057.       3183.       3366.       3463.       3538.       3640.       3673.       3743.       3654.    
        3600.       3680.       3620.       3771.       3849.       3822.       3511.       3270.       3164.       3174.    
        2980.       3605.       2950.       2870.       2797.       2732.    
  44    2173.       2214.       2257.       2301.       2346.       2392.       2439.       2487.       2537.       2587.    
        2639.       2692.       2747.       2803.       2860.       2918.       2978.       3040.       3103.       3167.    
        3233.       3301.       3370.       3444.       3353.       3384.       3448.       3327.       3171.       3112.    
        2959.       2914.       2765.       2678.       2550.       2752.       2718.       2835.       2914.       2985.    
        2887.       2976.       3047.       3029.       2591.       2518.       2566.       2619.       2384.       2574.    
        3041.       3205.       3272.       3364.       3468.       3543.       3519.       3621.       3646.       3660.    
        3507.       3624.       3553.       3715.       3717.       3790.       3648.       3489.       3653.       3359.    
        3114.       3291.       2818.       2724.       2637.       2557.    
  45    2143.       2182.       2222.       2263.       2305.       2348.       2392.       2437.       2484.       2531.    
        2579.       2629.       2680.       2732.       2785.       2840.       2896.       2953.       3012.       3072.    
        3133.       3196.       3206.       3363.       3438.       3415.       3358.       3096.       2954.       2974.    
        2977.       2906.       2872.       2770.       2511.       2634.       2777.       2873.       2894.       2997.    
        2843.       2862.       2960.       2990.       2616.       2489.       2536.       2560.       2377.       2739.    
        3022.       3170.       3295.       3438.       3397.       3388.       3488.       3608.       3562.       3598.    
        3439.       3583.       3505.       3630.       3627.       3684.       3707.       3827.       3717.       3483.    
        3262.       2807.       2690.       2580.       2478.       2384.    
  46    2119.       2155.       2193.       2232.       2271.       2311.       2353.       2395.       2438.       2483.    
        2528.       2575.       2622.       2671.       2721.       2772.       2824.       2878.       2933.       2989.    
        3046.       3105.       3203.       3273.       3409.       3495.       3319.       3113.       2889.       2801.    
        2865.       2857.       2796.       2784.       2494.       2599.       2749.       2797.       2895.       2890.    
        2793.       2911.       3032.       2986.       2604.       2493.       2489.       2463.       2400.       2864.    
        2987.       3094.       3236.       3322.       3214.       3282.       3500.       3569.       3473.       3484.    
        3397.       3581.       3466.       3550.       3565.       3589.       3776.       3860.       3559.       3456.    
        3139.       2700.       2567.       2442.       2324.       2214.    
  47    2100.       2134.       2170.       2206.       2243.       2281.       2320.       2359.       2400.       2442.    
        2484.       2528.       2573.       2619.       2665.       2713.       2762.       2812.       2864.       2916.    
        2970.       3025.       2902.       3120.       3312.       3543.       3361.       3066.       2888.       2794.    
        2698.       2649.       2603.       2597.       2500.       2432.       2561.       2718.       2832.       2680.    
        2724.       2901.       2989.       2922.       2517.       2449.       2419.       2399.       2388.       2700.    
        2888.       3065.       3132.       3175.       3123.       3283.       3461.       3516.       3396.       3359.    
        3523.       3553.       3360.       3344.       3427.       3608.       3736.       3845.       3537.       3266.    
        3076.       2604.       2454.       2312.       2177.       2051.    
  48    2085.       2118.       2151.       2185.       2220.       2256.       2292.       2329.       2368.       2407.    
        2447.       2488.       2530.       2573.       2617.       2662.       2708.       2755.       2803.       2853.    
        2903.       2988.       3053.       3071.       3400.       3533.       3334.       3145.       2934.       2835.    
        2696.       2669.       2670.       2595.       2615.       2569.       2411.       2608.       2636.       2590.    
        2806.       2868.       2964.       2827.       2438.       2391.       2381.       2323.       2488.       2666.    
        2787.       2892.       2976.       3007.       3175.       3314.       3451.       3384.       3289.       3425.    
        3549.       3423.       3282.       3435.       3629.       3632.       3706.       3613.       3389.       3022.    
        2777.       2520.       2353.       2193.       2041.       1897.    
  49    2075.       2105.       2136.       2168.       2201.       2235.       2269.       2305.       2341.       2378.    
        2415.       2454.       2494.       2534.       2576.       2618.       2661.       2706.       2751.       2797.    
        2845.       3015.       3184.       3075.       3361.       3568.       3374.       3243.       3038.       2899.    
        2703.       2839.       2725.       2746.       2790.       2622.       2432.       2416.       2456.       2557.    
        2796.       2879.       2946.       2834.       2433.       2317.       2309.       2306.       2481.       2760.    
        2947.       2964.       3057.       3116.       3227.       3424.       3406.       3244.       3244.       3283.    
        3283.       3307.       3534.       3658.       3587.       3433.       3548.       3273.       3205.       2846.    
        2647.       2452.       2266.       2088.       1918.       1757.    
  50    2067.       2096.       2125.       2156.       2187.       2218.       2251.       2284.       2318.       2353.    
        2389.       2425.       2463.       2501.       2540.       2580.       2621.       2662.       2705.       2749.    
        2793.       3025.       3427.       3134.       3419.       3491.       3186.       3011.       2890.       2814.    
        2855.       2885.       2822.       2792.       2733.       2672.       2643.       2406.       2347.       2581.    
        2708.       2877.       2890.       2764.       2369.       2265.       2255.       2331.       2518.       2758.    
        2948.       3115.       3210.       3296.       3405.       3440.       3303.       3140.       3046.       3061.    
        3306.       3489.       3605.       3704.       3569.       3440.       3209.       3205.       2959.       2877.    
        2606.       2410.       2211.       2008.       1812.       1632.    
  51    2062.       2090.       2117.       2146.       2175.       2205.       2236.       2267.       2300.       2332.    
        2366.       2401.       2436.       2472.       2509.       2547.       2585.       2625.       2665.       2706.    
        2749.       2954.       3368.       3200.       3499.       3558.       3383.       3196.       3151.       2995.    
        3007.       2978.       2797.       2699.       2619.       2560.       2524.       2531.       2375.       2404.    
        2593.       2726.       2817.       2667.       2298.       2228.       2242.       2350.       2552.       2749.    
        2881.       2980.       3136.       3295.       3411.       3310.       3157.       3011.       2926.       3315.    
        3487.       3554.       3638.       3659.       3470.       3363.       3277.       3136.       2917.       2730.    
        2564.       2372.       2176.       1978.       1777.       1573.    
  52    2060.       2086.       2112.       2139.       2167.       2195.       2224.       2254.       2284.       2315.    
        2347.       2380.       2413.       2448.       2483.       2518.       2555.       2592.       2630.       2669.    
        2803.       2974.       3353.       3362.       3585.       3521.       3500.       3404.       3414.       3255.    
        3064.       2890.       2814.       2810.       2725.       2650.       2713.       2617.       2492.       2307.    
        2452.       2605.       2781.       2559.       2291.       2180.       2215.       2336.       2535.       2758.    
        2909.       3018.       3146.       3326.       3374.       3196.       2985.       2832.       3152.       3297.    
        3423.       3534.       3643.       3539.       3440.       3157.       3210.       2918.       2966.       2705.    
        2520.       2332.       2141.       1947.       1749.       1549.    
  53    2060.       2084.       2109.       2135.       2161.       2188.       2215.       2243.       2272.       2302.    
        2332.       2363.       2394.       2427.       2460.       2494.       2528.       2564.       2600.       2637.    
        2876.       2934.       3487.       3650.       3489.       3301.       3477.       3591.       3398.       3133.    
        3073.       3047.       3025.       2875.       2802.       2801.       2806.       2728.       2542.       2318.    
        2369.       2583.       2759.       2622.       2319.       2125.       2129.       2305.       2510.       2721.    
        2953.       3161.       3260.       3302.       3236.       3021.       2807.       2800.       3194.       3333.    
        3435.       3560.       3579.       3535.       3323.       3174.       2936.       2914.       2754.       2657.    
        2476.       2291.       2104.       1914.       1720.       1524.    
  54    2061.       2084.       2108.       2132.       2157.       2182.       2208.       2235.       2262.       2290.    
        2319.       2348.       2378.       2409.       2440.       2472.       2505.       2539.       2573.       2608.    
        2923.       3264.       3363.       3393.       3201.       3433.       3558.       3392.       3135.       3065.    
        2959.       3125.       3162.       3045.       2934.       2863.       2775.       2714.       2626.       2379.    
        2299.       2540.       2681.       2574.       2274.       2076.       2146.       2341.       2529.       2732.    
        3072.       3154.       3214.       3219.       3041.       2793.       2675.       2890.       3186.       3315.    
        3453.       3515.       3325.       3368.       3137.       3089.       2850.       2869.       2782.       2607.    
        2430.       2250.       2066.       1880.       1690.       1498.    
  55    2065.       2086.       2108.       2131.       2155.       2179.       2203.       2229.       2255.       2281.    
        2308.       2336.       2365.       2394.       2424.       2454.       2485.       2517.       2550.       2607.    
        2956.       3139.       3231.       3090.       3282.       3597.       3653.       3299.       2960.       2903.    
        2875.       3091.       3191.       3070.       2869.       2761.       2681.       2600.       2527.       2501.    
        2231.       2408.       2668.       2515.       2208.       2052.       2138.       2356.       2557.       2834.    
        2966.       3049.       3200.       3107.       2935.       2648.       2662.       2914.       3121.       3286.    
        3472.       3458.       3308.       3078.       2945.       2821.       2904.       2737.       2728.       2557.    
        2383.       2207.       2027.       1845.       1659.       1471.    
  56    2069.       2089.       2110.       2132.       2154.       2177.       2200.       2224.       2249.       2274.    
        2300.       2326.       2353.       2381.       2409.       2438.       2468.       2498.       2529.       2707.    
        2975.       3193.       3122.       3016.       3171.       3386.       3564.       3201.       3008.       2765.    
        2902.       3057.       3129.       3103.       2955.       2742.       2632.       2535.       2471.       2381.    
        2206.       2360.       2594.       2306.       2084.       2041.       2103.       2373.       2690.       2777.    
        2848.       3010.       3159.       3115.       2810.       2566.       2690.       2927.       3128.       3384.    
        3404.       3494.       3424.       3237.       2996.       2861.       2851.       2791.       2673.       2506.    
        2336.       2163.       1988.       1809.       1627.       1443.    
  57    2074.       2094.       2114.       2134.       2155.       2177.       2199.       2221.       2245.       2269.    
        2293.       2318.       2344.       2370.       2397.       2425.       2453.       2482.       2511.       2781.    
        2889.       2917.       2935.       3152.       3273.       3358.       3416.       3235.       2973.       2733.    
        2819.       2908.       3013.       2986.       3144.       2902.       2687.       2605.       2585.       2477.    
        2191.       2185.       2285.       2086.       2033.       2037.       2169.       2385.       2554.       2626.    
        2781.       2978.       3133.       3076.       2819.       2537.       2701.       2969.       3154.       3282.    
        3243.       3382.       3456.       3204.       2887.       2878.       2689.       2779.       2618.       2455.    
        2288.       2119.       1947.       1772.       1594.       1413.    
  58    2081.       2099.       2118.       2137.       2157.       2177.       2198.       2220.       2242.       2265.    
        2288.       2312.       2336.       2361.       2387.       2413.       2440.       2467.       2496.       2824.    
        2771.       2872.       3168.       3185.       3448.       3151.       3058.       3340.       3162.       2895.    
        2663.       2787.       2848.       2894.       3031.       2920.       2820.       2624.       2490.       2405.    
        2195.       2048.       2034.       2021.       2026.       2146.       2425.       2540.       2737.       2798.    
        2874.       3007.       3124.       3063.       2818.       2545.       2674.       2913.       3071.       3078.    
        3129.       3181.       3236.       3059.       2904.       2777.       2739.       2719.       2562.       2403.    
        2240.       2074.       1906.       1735.       1561.       1384.    
  59    2088.       2105.       2123.       2141.       2160.       2179.       2199.       2219.       2240.       2262.    
        2284.       2306.       2330.       2354.       2378.       2403.       2428.       2455.       2552.       2843.    
        2861.       3109.       3396.       3457.       3601.       3288.       2896.       3244.       3205.       2977.    
        2720.       2604.       2688.       2831.       2995.       2811.       2863.       2713.       2559.       2345.    
        2119.       2018.       2013.       2022.       2146.       2445.       2649.       2696.       2769.       2976.    
        2993.       3100.       3069.       2930.       2828.       2590.       2579.       2841.       2862.       2886.    
        2931.       2895.       2966.       2889.       2839.       2621.       2810.       2660.       2507.       2350.    
        2191.       2029.       1865.       1697.       1526.       1353.    
  60    2095.       2111.       2128.       2145.       2163.       2181.       2200.       2219.       2239.       2260.    
        2281.       2302.       2324.       2347.       2370.       2394.       2418.       2443.       2645.       2839.    
        2890.       3084.       3402.       3537.       3403.       3199.       2815.       2967.       2939.       2963.    
        2780.       2563.       2655.       2872.       3009.       2730.       2830.       2609.       2427.       2265.    
        2058.       2008.       2009.       2060.       2292.       2405.       2597.       2743.       2840.       2999.    
        3115.       3088.       3017.       2915.       2784.       2630.       2505.       2676.       2746.       2851.    
        2768.       2745.       2871.       2881.       2662.       2659.       2747.       2600.       2450.       2298.    
        2142.       1984.       1823.       1659.       1492.       1322.    
  61    2103.       2119.       2134.       2150.       2167.       2184.       2202.       2220.       2239.       2259.    
        2279.       2299.       2320.       2342.       2364.       2386.       2409.       2433.       2698.       2808.    
        3048.       3247.       3428.       3278.       3183.       2940.       2772.       2757.       2822.       2910.    
        2787.       2544.       2559.       2799.       2931.       2736.       2639.       2563.       2310.       2184.    
        2019.       2003.       2087.       2306.       2568.       2545.       2557.       2666.       2789.       2923.    
        3054.       2936.       2942.       3006.       2960.       2772.       2508.       2613.       2775.       2816.    
        2691.       2674.       2735.       2740.       2539.       2766.       2684.       2541.       2394.       2245.    
        2093.       1938.       1781.       1620.       1457.       1291.    
  62    2112.       2126.       2141.       2156.       2172.       2188.       2205.       2222.       2240.       2258.    
        2277.       2296.       2316.       2337.       2358.       2379.       2402.       2435.       2713.       2744.    
        2992.       3141.       3154.       3109.       2987.       2763.       2741.       2666.       2685.       2756.    
        2707.       2563.       2459.       2667.       2838.       2861.       2676.       2525.       2255.       2117.    
        1999.       2063.       2367.       2433.       2566.       2669.       2799.       2802.       2881.       2905.    
        2940.       2862.       2832.       2908.       2843.       2760.       2504.       2603.       2708.       2815.    
        2689.       2556.       2617.       2533.       2566.       2759.       2622.       2481.       2338.       2192.    
        2044.       1893.       1738.       1581.       1422.       1259.    
  63    2120.       2134.       2147.       2162.       2177.       2192.       2208.       2224.       2241.       2258.    
        2276.       2294.       2313.       2333.       2353.       2373.       2394.       2523.       2692.       2650.    
        2722.       2835.       2913.       3127.       2932.       2788.       2647.       2620.       2649.       2750.    
        2736.       2690.       2443.       2591.       2701.       2767.       2774.       2475.       2218.       2073.    
        2003.       2232.       2424.       2556.       2642.       2863.       2913.       2934.       2801.       2840.    
        2833.       2789.       2734.       2852.       2699.       2711.       2533.       2627.       2783.       2781.    
        2623.       2508.       2541.       2450.       2676.       2693.       2559.       2422.       2282.       2140.    
        1995.       1847.       1696.       1543.       1386.       1227.    
  64    2129.       2142.       2154.       2168.       2182.       2196.       2211.       2226.       2242.       2259.    
        2276.       2293.       2311.       2329.       2348.       2368.       2388.       2588.       2626.       2636.    
        2621.       2676.       2922.       3073.       2884.       2818.       2766.       2559.       2531.       2570.    
        2552.       2512.       2417.       2439.       2554.       2590.       2658.       2531.       2193.       2046.    
        2031.       2326.       2495.       2676.       2753.       2857.       2769.       2795.       2693.       2761.    
        2793.       2684.       2638.       2673.       2644.       2698.       2492.       2731.       2911.       2846.    
        2636.       2471.       2419.       2467.       2756.       2628.       2497.       2363.       2227.       2088.    
        1946.       1801.       1654.       1504.       1351.       1195.    
  65    2138.       2150.       2161.       2174.       2187.       2200.       2214.       2229.       2244.       2259.    
        2275.       2292.       2309.       2326.       2344.       2363.       2382.       2608.       2502.       2672.    
        2611.       2611.       2749.       2805.       2713.       2638.       2579.       2475.       2402.       2442.    
        2414.       2383.       2333.       2371.       2433.       2480.       2538.       2319.       2144.       2005.    
        2107.       2457.       2575.       2692.       2899.       2918.       2758.       2661.       2612.       2627.    
        2762.       2649.       2524.       2598.       2544.       2534.       2544.       2739.       2762.       2786.    
        2565.       2501.       2359.       2560.       2688.       2563.       2435.       2305.       2172.       2036.    
        1897.       1756.       1612.       1465.       1316.       1164.    
  66    2147.       2158.       2169.       2180.       2192.       2205.       2218.       2232.       2246.       2260.    
        2275.       2291.       2307.       2323.       2341.       2358.       2420.       2581.       2330.       2624.    
        2601.       2585.       2652.       2624.       2570.       2474.       2378.       2350.       2359.       2335.    
        2355.       2299.       2299.       2239.       2278.       2361.       2384.       2312.       2126.       1998.    
        2179.       2477.       2712.       2807.       2761.       2801.       2809.       2723.       2572.       2499.    
        2643.       2644.       2494.       2453.       2433.       2428.       2573.       2618.       2603.       2661.    
        2507.       2456.       2368.       2659.       2621.       2499.       2374.       2247.       2117.       1985.    
        1849.       1711.       1571.       1427.       1281.       1132.    
  67    2156.       2166.       2176.       2187.       2198.       2210.       2222.       2234.       2248.       2261.    
        2275.       2290.       2305.       2321.       2337.       2354.       2491.       2502.       2738.       2578.    
        2577.       2554.       2587.       2695.       2640.       2464.       2346.       2288.       2308.       2348.    
        2293.       2274.       2320.       2308.       2201.       2183.       2176.       2195.       2110.       1997.    
        2168.       2593.       2717.       2696.       2642.       2662.       2660.       2584.       2535.       2425.    
        2460.       2396.       2371.       2366.       2403.       2457.       2428.       2440.       2475.       2493.    
        2433.       2291.       2441.       2670.       2554.       2436.       2314.       2190.       2063.       1934.    
        1802.       1667.       1530.       1390.       1247.       1101.    
  68    2164.       2173.       2183.       2193.       2203.       2214.       2225.       2237.       2250.       2262.    
        2276.       2289.       2304.       2319.       2334.       2350.       2521.       2355.       2792.       2553.    
        2560.       2533.       2585.       2738.       2667.       2556.       2359.       2258.       2281.       2473.    
        2284.       2253.       2367.       2290.       2237.       2118.       2272.       2426.       2258.       1999.    
        2152.       2535.       2564.       2561.       2521.       2507.       2475.       2409.       2363.       2336.    
        2321.       2357.       2365.       2464.       2556.       2621.       2498.       2348.       2361.       2443.    
        2382.       2278.       2559.       2602.       2489.       2373.       2255.       2134.       2010.       1884.    
        1755.       1624.       1489.       1352.       1213.       1070.    
  69    2173.       2181.       2190.       2199.       2209.       2219.       2229.       2240.       2252.       2263.    
        2276.       2289.       2302.       2316.       2331.       2349.       2499.       2168.       2498.       2527.    
        2636.       2527.       2552.       2655.       2642.       2589.       2498.       2349.       2244.       2403.    
        2347.       2273.       2525.       2269.       2191.       2123.       2262.       2337.       2222.       1998.    
        2113.       2382.       2391.       2398.       2386.       2360.       2305.       2272.       2278.       2283.    
        2324.       2445.       2469.       2484.       2414.       2408.       2505.       2392.       2268.       2333.    
        2390.       2327.       2642.       2535.       2425.       2312.       2197.       2079.       1958.       1835.    
        1709.       1581.       1450.       1316.       1179.       1040.    
  70    2182.       2189.       2197.       2205.       2214.       2223.       2233.       2243.       2253.       2265.    
        2276.       2288.       2301.       2314.       2327.       2408.       2421.       2796.       2501.       2501.    
        2614.       2595.       2495.       2527.       2515.       2472.       2454.       2419.       2307.       2235.    
        2269.       2257.       2468.       2271.       2165.       2108.       2121.       2102.       2006.       1998.    
        2067.       2216.       2236.       2271.       2274.       2253.       2244.       2347.       2450.       2436.    
        2508.       2596.       2578.       2548.       2489.       2397.       2312.       2363.       2297.       2326.    
        2226.       2427.       2573.       2469.       2362.       2252.       2140.       2025.       1907.       1787.    
        1664.       1539.       1411.       1280.       1147.       1011.    
  71    2190.       2196.       2203.       2211.       2219.       2227.       2236.       2245.       2255.       2265.    
        2276.       2287.       2299.       2311.       2324.       2446.       2274.       2887.       2468.       2474.    
        2499.       2510.       2462.       2484.       2409.       2399.       2371.       2342.       2313.       2306.    
        2221.       2224.       2406.       2299.       2189.       2084.       2028.       2004.       2012.       2047.    
        2120.       2219.       2253.       2279.       2217.       2234.       2377.       2444.       2456.       2454.    
        2433.       2474.       2441.       2400.       2373.       2377.       2389.       2274.       2286.       2328.    
        2232.       2507.       2506.       2404.       2300.       2193.       2084.       1972.       1857.       1740.    
        1620.       1498.       1373.       1245.       1115.       982.3    
  72    2198.       2204.       2210.       2216.       2224.       2231.       2239.       2248.       2257.       2266.    
        2276.       2287.       2297.       2309.       2321.       2435.       2089.       2405.       2442.       2448.    
        2442.       2455.       2440.       2469.       2424.       2334.       2325.       2280.       2253.       2204.    
        2202.       2156.       2283.       2238.       2133.       2063.       2003.       2034.       2089.       2135.    
        2279.       2302.       2234.       2206.       2232.       2304.       2345.       2349.       2333.       2336.    
        2375.       2414.       2419.       2411.       2386.       2357.       2353.       2207.       2289.       2243.    
        2302.       2537.       2440.       2341.       2240.       2136.       2029.       1920.       1809.       1695.    
        1578.       1458.       1336.       1212.       1084.       954.6    
  73    2206.       2210.       2216.       2222.       2228.       2235.       2242.       2250.       2258.       2267.    
        2276.       2286.       2296.       2306.       2341.       2365.       2801.       2441.       2417.       2422.    
        2425.       2425.       2417.       2452.       2413.       2329.       2272.       2243.       2209.       2279.    
        2269.       2118.       2153.       2126.       2075.       2020.       2021.       2081.       2147.       2235.    
        2282.       2335.       2248.       2170.       2273.       2366.       2377.       2322.       2286.       2314.    
        2336.       2362.       2359.       2383.       2398.       2422.       2313.       2239.       2291.       2183.    
        2407.       2470.       2376.       2280.       2181.       2080.       1977.       1870.       1762.       1650.    
        1536.       1420.       1301.       1179.       1055.       928.1    
  74    2213.       2217.       2222.       2227.       2232.       2238.       2245.       2252.       2259.       2267.    
        2275.       2284.       2294.       2303.       2383.       2230.       2958.       2385.       2391.       2397.    
        2398.       2399.       2399.       2429.       2397.       2314.       2266.       2236.       2231.       2285.    
        2282.       2234.       2105.       2107.       2073.       1997.       2023.       2134.       2177.       2282.    
        2329.       2280.       2219.       2163.       2252.       2276.       2276.       2245.       2251.       2268.    
        2282.       2306.       2332.       2355.       2346.       2395.       2259.       2279.       2215.       2199.    
        2493.       2405.       2314.       2221.       2125.       2026.       1925.       1822.       1716.       1607.    
        1496.       1383.       1267.       1148.       1027.       902.7    
  75    2220.       2223.       2227.       2232.       2236.       2242.       2247.       2253.       2260.       2267.    
        2275.       2283.       2291.       2300.       2382.       2053.       2340.       2361.       2367.       2373.    
        2372.       2366.       2387.       2405.       2376.       2293.       2258.       2239.       2254.       2268.    
        2247.       2177.       2262.       2287.       2222.       2085.       2039.       2109.       2181.       2299.    
        2242.       2203.       2192.       2161.       2168.       2212.       2212.       2194.       2221.       2226.    
        2254.       2268.       2294.       2347.       2311.       2358.       2212.       2263.       2153.       2280.    
        2428.       2342.       2254.       2163.       2070.       1974.       1876.       1775.       1672.       1566.    
        1458.       1347.       1234.       1118.       999.6       878.6    
  76    2227.       2229.       2233.       2236.       2240.       2245.       2249.       2255.       2261.       2267.    
        2274.       2281.       2289.       2297.       2325.       2748.       2394.       2336.       2343.       2350.    
        2334.       2350.       2378.       2382.       2337.       2265.       2231.       2230.       2235.       2217.    
        2185.       2218.       2225.       2175.       2118.       2038.       2026.       2125.       2227.       2226.    
        2168.       2164.       2182.       2163.       2131.       2157.       2159.       2172.       2202.       2224.    
        2227.       2279.       2269.       2298.       2278.       2321.       2174.       2252.       2150.       2367.    
        2364.       2281.       2195.       2107.       2017.       1924.       1828.       1730.       1630.       1527.    
        1421.       1313.       1203.       1090.       974.1       856.0    
  77    2233.       2235.       2237.       2240.       2243.       2247.       2251.       2256.       2261.       2267.    
        2273.       2279.       2286.       2328.       2205.       3006.       2317.       2313.       2320.       2329.    
        2328.       2345.       2355.       2360.       2292.       2242.       2215.       2199.       2185.       2176.    
        2174.       2168.       2130.       2137.       2124.       2031.       1983.       2099.       2153.       2145.    
        2114.       2124.       2165.       2152.       2125.       2118.       2136.       2148.       2166.       2210.    
        2200.       2267.       2221.       2241.       2260.       2284.       2217.       2145.       2172.       2381.    
        2303.       2222.       2139.       2054.       1966.       1875.       1782.       1687.       1589.       1489.    
        1386.       1281.       1173.       1063.       950.2       834.9    
  78    2239.       2240.       2242.       2244.       2246.       2249.       2253.       2257.       2261.       2266.    
        2271.       2277.       2283.       2336.       2040.       2297.       2280.       2290.       2299.       2309.    
        2318.       2325.       2331.       2335.       2268.       2219.       2186.       2167.       2135.       2116.    
        2101.       2082.       2074.       2160.       2259.       2127.       1984.       2065.       2100.       2090.    
        2075.       2108.       2147.       2140.       2130.       2098.       2109.       2125.       2134.       2185.    
        2190.       2209.       2230.       2250.       2244.       2248.       2217.       2145.       2249.       2320.    
        2244.       2166.       2086.       2003.       1917.       1829.       1739.       1646.       1551.       1453.    
        1353.       1251.       1146.       1038.       928.0       815.5    
  79    2245.       2245.       2246.       2247.       2249.       2251.       2254.       2257.       2261.       2265.    
        2269.       2274.       2279.       2293.       2640.       2358.       2258.       2269.       2279.       2291.    
        2297.       2304.       2309.       2299.       2226.       2198.       2188.       2200.       2177.       2137.    
        2112.       2086.       2057.       2088.       2163.       2155.       1982.       2030.       2058.       2055.    
        2067.       2104.       2131.       2130.       2122.       2096.       2083.       2103.       2135.       2175.    
        2173.       2156.       2202.       2232.       2218.       2211.       2167.       2119.       2333.       2262.    
        2188.       2112.       2034.       1954.       1871.       1785.       1698.       1607.       1515.       1420.    
        1322.       1222.       1120.       1015.       907.7       797.9    
  80    2250.       2250.       2250.       2250.       2251.       2253.       2255.       2257.       2260.       2263.    
        2267.       2271.       2285.       2189.       3032.       2268.       2236.       2248.       2261.       2274.    
        2279.       2284.       2287.       2277.       2247.       2245.       2274.       2346.       2374.       2320.    
        2297.       2239.       2195.       2186.       2073.       2067.       2030.       1975.       2052.       2095.    
        2100.       2108.       2118.       2119.       2113.       2098.       2063.       2081.       2123.       2148.    
        2171.       2154.       2165.       2207.       2179.       2174.       2121.       2146.       2274.       2206.    
        2135.       2061.       1985.       1907.       1827.       1744.       1659.       1571.       1481.       1388.    
        1294.       1196.       1096.       994.1       889.4       782.2    
  81    2255.       2254.       2253.       2253.       2253.       2254.       2255.       2257.       2259.       2261.    
        2264.       2267.       2297.       2039.       2273.       2201.       2216.       2230.       2244.       2250.    
        2269.       2260.       2267.       2259.       2297.       2354.       2354.       2330.       2367.       2317.    
        2302.       2213.       2184.       2121.       2036.       2029.       2011.       1948.       2040.       2087.    
        2112.       2111.       2107.       2110.       2104.       2095.       2056.       2077.       2109.       2117.    
        2155.       2164.       2143.       2145.       2143.       2137.       2137.       2233.       2219.       2153.    
        2084.       2013.       1939.       1864.       1786.       1705.       1622.       1537.       1449.       1359.    
        1267.       1172.       1075.       975.2       873.1       768.5    
  82    2260.       2258.       2256.       2255.       2255.       2255.       2255.       2256.       2257.       2259.    
        2261.       2264.       2266.       2490.       2329.       2180.       2197.       2213.       2229.       2235.    
        2255.       2241.       2246.       2281.       2377.       2432.       2304.       2248.       2237.       2195.    
        2163.       2132.       2110.       2063.       1997.       2009.       1959.       1941.       2023.       2085.    
        2100.       2098.       2097.       2100.       2095.       2084.       2047.       2065.       2090.       2102.    
        2131.       2149.       2169.       2146.       2122.       2107.       2090.       2228.       2167.       2102.    
        2036.       1967.       1896.       1823.       1747.       1669.       1588.       1506.       1420.       1333.    
        1243.       1151.       1056.       958.6       859.0       757.0    
  83    2264.       2261.       2259.       2257.       2256.       2255.       2255.       2255.       2255.       2256.    
        2258.       2259.       2179.       3037.       2232.       2161.       2180.       2198.       2214.       2246.    
        2242.       2237.       2261.       2335.       2445.       2339.       2240.       2191.       2149.       2128.    
        2085.       2058.       2028.       2023.       1965.       1928.       1958.       2020.       2041.       2086.    
        2090.       2085.       2087.       2089.       2085.       2073.       2036.       2064.       2078.       2098.    
        2101.       2120.       2139.       2118.       2114.       2121.       2114.       2177.       2117.       2055.    
        1991.       1925.       1856.       1785.       1711.       1635.       1557.       1477.       1394.       1309.    
        1221.       1131.       1039.       944.4       847.3       747.8    
  84    2267.       2264.       2261.       2258.       2256.       2255.       2254.       2253.       2253.       2253.    
        2254.       2265.       2043.       2264.       2138.       2143.       2164.       2184.       2180.       2236.    
        2228.       2235.       2274.       2413.       2459.       2319.       2242.       2180.       2133.       2096.    
        2054.       2033.       2027.       1981.       1928.       1968.       2019.       2022.       2049.       2083.    
        2080.       2075.       2075.       2081.       2076.       2062.       2037.       2060.       2069.       2079.    
        2082.       2105.       2106.       2098.       2086.       2113.       2184.       2129.       2071.       2011.    
        1949.       1885.       1818.       1749.       1678.       1605.       1529.       1451.       1370.       1287.    
        1202.       1115.       1025.       932.6       838.0       741.0    
  85    2270.       2266.       2262.       2259.       2256.       2254.       2252.       2251.       2250.       2249.    
        2249.       2243.       2315.       2307.       2103.       2127.       2150.       2170.       2194.       2211.    
        2214.       2228.       2264.       2432.       2477.       2330.       2208.       2176.       2117.       2079.    
        2043.       2003.       1990.       1950.       1919.       1985.       2011.       2021.       2065.       2072.    
        2072.       2066.       2064.       2072.       2068.       2038.       2039.       2047.       2041.       2054.    
        2072.       2082.       2067.       2070.       2078.       2061.       2137.       2084.       2028.       1971.    
        1911.       1849.       1784.       1717.       1648.       1577.       1504.       1428.       1349.       1269.    
        1186.       1101.       1013.       923.5       831.3       736.7    
  86    2273.       2268.       2264.       2260.       2256.       2253.       2251.       2248.       2247.       2245.    
        2245.       2171.       3023.       2206.       2087.       2113.       2137.       2140.       2220.       2197.    
        2200.       2183.       2306.       2405.       2433.       2297.       2164.       2184.       2133.       2086.    
        2061.       2038.       1999.       1939.       1908.       1994.       2005.       2037.       2064.       2063.    
        2063.       2059.       2053.       2064.       2055.       2013.       2046.       2028.       2020.       2034.    
        2050.       2055.       2048.       2046.       2056.       2119.       2094.       2043.       1989.       1934.    
        1876.       1816.       1753.       1689.       1622.       1553.       1481.       1408.       1332.       1253.    
        1173.       1090.       1005.       917.2       827.3       735.0    
  87    2275.       2269.       2264.       2260.       2255.       2252.       2248.       2245.       2243.       2241.    
        2241.       2050.       2269.       2096.       2072.       2100.       2125.       2149.       2192.       2182.    
        2187.       2243.       2250.       2332.       2372.       2203.       2085.       2083.       2102.       2066.    
        2015.       1985.       1983.       1922.       1909.       1993.       2000.       2043.       2055.       2052.    
        2054.       2040.       2053.       2052.       2031.       2010.       2041.       2024.       2011.       2024.    
        2039.       2033.       2034.       2034.       2044.       2101.       2054.       2005.       1954.       1900.    
        1844.       1786.       1726.       1663.       1599.       1532.       1462.       1391.       1317.       1241.    
        1163.       1082.       998.9       913.7       826.1       736.2    
  88    2277.       2270.       2264.       2259.       2254.       2250.       2246.       2242.       2239.       2236.    
        2224.       2138.       2289.       2030.       2060.       2089.       2112.       2162.       2148.       2168.    
        2175.       2187.       2209.       2208.       2287.       2233.       2091.       2033.       2013.       1988.    
        2010.       1982.       1931.       1899.       1910.       1985.       2006.       2044.       2043.       2037.    
        2041.       2015.       2043.       2031.       1992.       2023.       2024.       2004.       2013.       2028.    
        2035.       2024.       2024.       2034.       2032.       2064.       2019.       1971.       1922.       1870.    
        1816.       1760.       1702.       1641.       1579.       1514.       1447.       1377.       1305.       1232.    
        1155.       1077.       996.2       913.1       827.8       740.1    
  89    2278.       2271.       2264.       2258.       2252.       2247.       2242.       2238.       2234.       2231.    
        2164.       2990.       2186.       2014.       2049.       2079.       2073.       2193.       2132.       2154.    
        2162.       2174.       2176.       2145.       2260.       2216.       2084.       2048.       2013.       1973.    
        1949.       1931.       1918.       1892.       1918.       1982.       2008.       2030.       2010.       1998.    
        2003.       1987.       2008.       1990.       1997.       2015.       1999.       2024.       2038.       2036.    
        2020.       2013.       2020.       2030.       2071.       2030.       1987.       1941.       1894.       1844.    
        1792.       1738.       1681.       1623.       1562.       1499.       1434.       1367.       1297.       1226.    
        1151.       1075.       996.6       915.7       832.6       747.2    
  90    2278.       2271.       2263.       2257.       2250.       2244.       2239.       2234.       2229.       2225.    
        2057.       2284.       2069.       2003.       2040.       2069.       2113.       2141.       2122.       2140.    
        2151.       2162.       2129.       2108.       2166.       2241.       2192.       2074.       2025.       1993.    
        1973.       1924.       1890.       1895.       1922.       1974.       1991.       1966.       1936.       1938.    
        1952.       1964.       1963.       1972.       1989.       1993.       2004.       2024.       2039.       2028.    
        2018.       2008.       2008.       2014.       2040.       2000.       1959.       1915.       1870.       1822.    
        1772.       1719.       1665.       1608.       1550.       1489.       1426.       1360.       1293.       1223.    
        1151.       1077.       1000.       921.5       840.5       757.3    
  91    2278.       2270.       2262.       2254.       2247.       2241.       2234.       2229.       2223.       2210.    
        1999.       2273.       1976.       1994.       2032.       2036.       2159.       2086.       2111.       2128.    
        2143.       2137.       2089.       2070.       2160.       2284.       2263.       2080.       2000.       1975.    
        1954.       1930.       1881.       1889.       1929.       1969.       1951.       1922.       1982.       1996.    
        1995.       1968.       1996.       1967.       1996.       2023.       2030.       2025.       2028.       2016.    
        2011.       2004.       2001.       2042.       2013.       1975.       1935.       1893.       1849.       1803.    
        1755.       1705.       1652.       1598.       1541.       1482.       1421.       1357.       1292.       1224.    
        1154.       1082.       1007.       930.7       851.8       770.7    
  92    2278.       2269.       2260.       2252.       2244.       2237.       2230.       2223.       2217.       2159.    
        2939.       2171.       1945.       1987.       2024.       2079.       2148.       2052.       2099.       2117.    
        2138.       2079.       2058.       2047.       2187.       2251.       2126.       2045.       1977.       1954.    
        1928.       1909.       1873.       1883.       1946.       1956.       1916.       1985.       2003.       2032.    
        2037.       2005.       2027.       2019.       2017.       2033.       2048.       2041.       2042.       2028.    
        2023.       2004.       2000.       2024.       1990.       1954.       1916.       1876.       1834.       1789.    
        1743.       1694.       1644.       1591.       1536.       1479.       1419.       1358.       1294.       1228.    
        1160.       1090.       1018.       943.3       866.5       787.4    
  93    2277.       2267.       2258.       2249.       2240.       2232.       2225.       2217.       2211.       2064.    
        2300.       2052.       1936.       1982.       2013.       2051.       2087.       2050.       2089.       2110.    
        2126.       2038.       2030.       2024.       2139.       2236.       2123.       2055.       2010.       1987.    
        1927.       1898.       1894.       1872.       1933.       1921.       1941.       2040.       2042.       2058.    
        2055.       2032.       2027.       2038.       2036.       2031.       2039.       2053.       2056.       2043.    
        2026.       2005.       2014.       2004.       1972.       1938.       1901.       1863.       1822.       1780.    
        1735.       1688.       1639.       1588.       1535.       1479.       1422.       1362.       1301.       1237.    
        1171.       1103.       1032.       959.5       884.7       807.7    
  94    2275.       2265.       2255.       2245.       2236.       2227.       2219.       2211.       2200.       1974.    
        2258.       1944.       1931.       1977.       1986.       2145.       2027.       2047.       2081.       2094.    
        2047.       2012.       2007.       2003.       2052.       2206.       2129.       2073.       2087.       2052.    
        1963.       1942.       1917.       1863.       1923.       1901.       1911.       1955.       2003.       2035.    
        2050.       2059.       2047.       2049.       2054.       2048.       2041.       2055.       2069.       2060.    
        2025.       2009.       2018.       1989.       1959.       1926.       1891.       1854.       1815.       1774.    
        1731.       1686.       1639.       1589.       1538.       1484.       1429.       1371.       1311.       1249.    
        1185.       1119.       1050.       979.4       906.6       831.5    
  95    2273.       2262.       2251.       2241.       2231.       2221.       2212.       2204.       2156.       2873.    
        2158.       1883.       1929.       1971.       2033.       2097.       1981.       2042.       2076.       2108.    
        1996.       1994.       1985.       1990.       2025.       2163.       2239.       2125.       2035.       2056.    
        1991.       1938.       1893.       1857.       1920.       1884.       1938.       1982.       2007.       2019.    
        2029.       2044.       2074.       2078.       2086.       2073.       2057.       2062.       2057.       2036.    
        2024.       2023.       2006.       1979.       1950.       1919.       1885.       1850.       1813.       1773.    
        1732.       1688.       1643.       1595.       1545.       1494.       1440.       1384.       1326.       1265.    
        1203.       1139.       1072.       1003.       932.2       859.1    
  96    2270.       2258.       2247.       2236.       2225.       2215.       2205.       2196.       2071.       2294.    
        2041.       1874.       1927.       1939.       2090.       2034.       1970.       2039.       2074.       2081.    
        1948.       1980.       1976.       1981.       2021.       2182.       2164.       2060.       2010.       2005.    
        2010.       1937.       1876.       1862.       1880.       1951.       1969.       2002.       1995.       2030.    
        2065.       2077.       2168.       2178.       2221.       2154.       2144.       2117.       2059.       2036.    
        2040.       2023.       2000.       1974.       1946.       1916.       1884.       1851.       1815.       1777.    
        1737.       1695.       1651.       1605.       1557.       1507.       1455.       1401.       1344.       1286.    
        1225.       1163.       1098.       1031.       961.8       890.6    
  97    2267.       2254.       2242.       2230.       2219.       2208.       2198.       2188.       1977.       2241.    
        1928.       1873.       1926.       1995.       2100.       1973.       1981.       2039.       2058.       2013.    
        1945.       1968.       1957.       1974.       2034.       2193.       2166.       2069.       2002.       1984.    
        1949.       1950.       1878.       1851.       1871.       1977.       2005.       2029.       2021.       2082.    
        2186.       2211.       2256.       2253.       2252.       2239.       2241.       2221.       2086.       2028.    
        2030.       2015.       1996.       1972.       1947.       1919.       1888.       1856.       1822.       1786.    
        1747.       1707.       1665.       1620.       1574.       1525.       1475.       1422.       1367.       1311.    
        1252.       1191.       1128.       1063.       995.4       926.0    
  98    2263.       2249.       2236.       2224.       2212.       2201.       2189.       2156.       2791.       2145.    
        1843.       1875.       1920.       1915.       2044.       1925.       1989.       2041.       2088.       1967.    
        1953.       1955.       1946.       1970.       2030.       2198.       2172.       2098.       1987.       1994.    
        1950.       1913.       1879.       1849.       1942.       1975.       2020.       2048.       2063.       2175.    
        2251.       2237.       2213.       2226.       2240.       2218.       2190.       2220.       2106.       2030.    
        2011.       2003.       1990.       1972.       1949.       1921.       1898.       1867.       1834.       1799.    
        1762.       1723.       1682.       1640.       1595.       1548.       1499.       1448.       1395.       1340.    
        1283.       1223.       1162.       1099.       1033.       965.5    
  99    2258.       2244.       2230.       2217.       2204.       2192.       2181.       2077.       2277.       2034.    
        1819.       1878.       1927.       2089.       1983.       1896.       1997.       2007.       2024.       1940.    
        1957.       1935.       1954.       1982.       2042.       2096.       2123.       2014.       1981.       1974.    
        1982.       1924.       1876.       1879.       1963.       1992.       2007.       2050.       2124.       2137.    
        2213.       2231.       2197.       2192.       2218.       2202.       2165.       2223.       2186.       2063.    
        1992.       1986.       1980.       1967.       1950.       1929.       1902.       1869.       1848.       1817.    
        1782.       1745.       1705.       1664.       1621.       1575.       1528.       1478.       1427.       1373.    
        1318.       1260.       1201.       1139.       1075.       1009.    
 100    2252.       2237.       2223.       2209.       2196.       2183.       2171.       1982.       2221.       1923.    
        1820.       1879.       1952.       2048.       1929.       1918.       2006.       2049.       1993.       1937.    
        1956.       1952.       1971.       2002.       2023.       2001.       2005.       2014.       1991.       1955.    
        2013.       2005.       1885.       1925.       2019.       2001.       2016.       2103.       2064.       2064.    
        2171.       2204.       2195.       2151.       2194.       2178.       2165.       2214.       2233.       1983.    
        1975.       1968.       1961.       1955.       1949.       1932.       1911.       1885.       1854.       1818.    
        1796.       1771.       1733.       1693.       1651.       1607.       1561.       1514.       1464.       1412.    
        1358.       1302.       1244.       1184.       1122.       1057.    
 101    2245.       2230.       2215.       2201.       2187.       2174.       2156.       2694.       2130.       1829.    
        1828.       1852.       2020.       1993.       1885.       1944.       1994.       2042.       1971.       1952.    
        1953.       1975.       1987.       2010.       2054.       2003.       1966.       1993.       1967.       1982.    
        2028.       2013.       1870.       1966.       2039.       2006.       2002.       2048.       2032.       2121.    
        2180.       2203.       2178.       2138.       2164.       2132.       2174.       2257.       2134.       1967.    
        1959.       1951.       1944.       1937.       1930.       1923.       1917.       1897.       1872.       1842.    
        1807.       1767.       1742.       1725.       1687.       1644.       1600.       1554.       1505.       1455.    
        1402.       1348.       1291.       1233.       1172.       1110.    
 102    2238.       2222.       2207.       2192.       2177.       2163.       2084.       2252.       2027.       1777.    
        1835.       1909.       2042.       1940.       1856.       1964.       1984.       2011.       1972.       1984.    
        1979.       1977.       2002.       2016.       2002.       2021.       1997.       1950.       1945.       1965.    
        2005.       1982.       1885.       1966.       2017.       1989.       2000.       1985.       2046.       2071.    
        2180.       2186.       2193.       2150.       2100.       2104.       2212.       2252.       1961.       1952.    
        1944.       1935.       1927.       1920.       1912.       1905.       1898.       1892.       1886.       1862.    
        1833.       1799.       1760.       1715.       1688.       1675.       1644.       1599.       1552.       1503.    
        1452.       1399.       1344.       1287.       1228.       1167.    
 103    2230.       2213.       2197.       2182.       2166.       2152.       1989.       2195.       1924.       1777.    
        1836.       1845.       1996.       1895.       1857.       1974.       2047.       1997.       2021.       2021.    
        2009.       2004.       2010.       1983.       1972.       2004.       1990.       1966.       1914.       1936.    
        1994.       2051.       1907.       1899.       1976.       1944.       1978.       1986.       2002.       2083.    
        2175.       2156.       2175.       2178.       2065.       2140.       2253.       2064.       1948.       1939.    
        1929.       1921.       1912.       1904.       1896.       1888.       1881.       1874.       1867.       1861.    
        1855.       1826.       1793.       1755.       1712.       1664.       1634.       1623.       1601.       1556.    
        1506.       1455.       1401.       1346.       1288.       1229.    
 104    2220.       2203.       2187.       2171.       2155.       2139.       2585.       2112.       1832.       1789.    
        1889.       2021.       1947.       1863.       1908.       1930.       2020.       2027.       2023.       2032.    
        2044.       2040.       2010.       1962.       1951.       1988.       1959.       2020.       1947.       1925.    
        2034.       2068.       1902.       1858.       1909.       1975.       2072.       2084.       2091.       2109.    
        2157.       2129.       2118.       2108.       2086.       2197.       2201.       1945.       1935.       1925.    
        1916.       1907.       1898.       1889.       1880.       1872.       1864.       1857.       1849.       1842.    
        1836.       1830.       1824.       1791.       1754.       1712.       1665.       1613.       1579.       1569.    
        1555.       1515.       1463.       1409.       1353.       1295.    
 105    2210.       2192.       2175.       2158.       2142.       2092.       2219.       2019.       1763.       1801.    
        1873.       1987.       1906.       1843.       1938.       1990.       2014.       1997.       1998.       2024.    
        2063.       2104.       2022.       1964.       1936.       1939.       1911.       1960.       1939.       1911.    
        2038.       2018.       1859.       1867.       2018.       2057.       2105.       2114.       2070.       2092.    
        2122.       2141.       2119.       2090.       2141.       2175.       1959.       1933.       1923.       1913.    
        1903.       1893.       1884.       1875.       1866.       1857.       1849.       1841.       1833.       1825.    
        1818.       1811.       1805.       1799.       1792.       1756.       1715.       1669.       1618.       1561.    
        1525.       1514.       1505.       1477.       1424.       1367.    
 106    2198.       2180.       2163.       2145.       2128.       1995.       2162.       1928.       1748.       1786.    
        1947.       1945.       1876.       1837.       1911.       2015.       1991.       1976.       1996.       2024.    
        2040.       2078.       1994.       1961.       1933.       1907.       1894.       1886.       1913.       1881.    
        1971.       1913.       1819.       1902.       2023.       2068.       2099.       2085.       2052.       2102.    
        2118.       2124.       2131.       2108.       2103.       2142.       1933.       1922.       1911.       1901.    
        1891.       1881.       1871.       1862.       1852.       1843.       1834.       1825.       1817.       1809.    
        1801.       1794.       1786.       1780.       1773.       1768.       1761.       1721.       1676.       1626.    
        1570.       1510.       1470.       1458.       1453.       1434.    
 107    2185.       2167.       2149.       2131.       2114.       2463.       2086.       1845.       1764.       1824.    
        1967.       1909.       1859.       1885.       1940.       1989.       1974.       1958.       1982.       1995.    
        2003.       1994.       1988.       1958.       1953.       1945.       1920.       1878.       1852.       1870.    
        1917.       1845.       1809.       1960.       2075.       2101.       2069.       2020.       2042.       2106.    
        2122.       2082.       2098.       2074.       2098.       2011.       1922.       1911.       1900.       1890.    
        1879.       1869.       1859.       1849.       1839.       1830.       1820.       1811.       1802.       1794.    
        1785.       1777.       1770.       1762.       1755.       1748.       1742.       1739.       1730.       1685.    
        1636.       1582.       1523.       1459.       1415.       1402.    
 108    2171.       2152.       2134.       2115.       2094.       2173.       2007.       1777.       1778.       1825.    
        1933.       1885.       1855.       1895.       1965.       1963.       1946.       1961.       1986.       1997.    
        1943.       1923.       1924.       1954.       1959.       1925.       1898.       1873.       1844.       1858.    
        1882.       1814.       1843.       2064.       2094.       2077.       2028.       2009.       2051.       2079.    
        2110.       2084.       2063.       2053.       2082.       1923.       1912.       1901.       1890.       1879.    
        1868.       1858.       1847.       1837.       1827.       1817.       1807.       1798.       1788.       1779.    
        1771.       1762.       1754.       1746.       1738.       1731.       1724.       1717.       1711.       1710.    
        1699.       1650.       1597.       1539.       1476.       1407.    
 109    2156.       2136.       2117.       2098.       1998.       2118.       1930.       1742.       1809.       1934.    
        1902.       1873.       1863.       1881.       1930.       1938.       1931.       1948.       1962.       1979.    
        1921.       1889.       1882.       1892.       1925.       1910.       1886.       1861.       1840.       1838.    
        1849.       1800.       1887.       2081.       2057.       1999.       1970.       1993.       2023.       2072.    
        2081.       2058.       2051.       2043.       1940.       1914.       1902.       1891.       1880.       1869.    
        1858.       1847.       1836.       1825.       1815.       1805.       1795.       1785.       1775.       1766.    
        1757.       1748.       1739.       1730.       1722.       1714.       1707.       1699.       1692.       1686.    
        1680.       1681.       1668.       1615.       1558.       1496.    
 110    2138.       2118.       2099.       2080.       2331.       2052.       1863.       1757.       1799.       1908.    
        1883.       1874.       1881.       1898.       1914.       1916.       1934.       1962.       1982.       1962.    
        1931.       1895.       1860.       1845.       1899.       1921.       1895.       1866.       1848.       1820.    
        1829.       1796.       1879.       1934.       1919.       1930.       2003.       2028.       2063.       2085.    
        2064.       2026.       2009.       2021.       1916.       1905.       1893.       1881.       1870.       1859.    
        1847.       1836.       1825.       1814.       1804.       1793.       1783.       1773.       1763.       1753.    
        1743.       1734.       1725.       1716.       1707.       1699.       1690.       1683.       1675.       1668.    
        1661.       1654.       1648.       1653.       1636.       1580.    
 111    2119.       2099.       2079.       2060.       2114.       1985.       1808.       1763.       1869.       1883.    
        1878.       1892.       1897.       1896.       1902.       1927.       1953.       1961.       1956.       1895.    
        1902.       1873.       1864.       1828.       1862.       1892.       1845.       1809.       1822.       1792.    
        1789.       1798.       1836.       1877.       2013.       2038.       2083.       2084.       2061.       2044.    
        2046.       2040.       2005.       1920.       1908.       1896.       1884.       1872.       1860.       1849.    
        1838.       1826.       1815.       1804.       1793.       1782.       1772.       1761.       1751.       1741.    
        1731.       1721.       1711.       1702.       1693.       1684.       1675.       1667.       1659.       1651.    
        1644.       1636.       1630.       1623.       1617.       1625.    
 112    2098.       2078.       2058.       1998.       2061.       1926.       1772.       1759.       1870.       1870.    
        1860.       1881.       1886.       1892.       1919.       1923.       1916.       1905.       1926.       1875.    
        1882.       1877.       1844.       1814.       1816.       1860.       1819.       1797.       1777.       1782.    
        1802.       1819.       1833.       1894.       2014.       2065.       2049.       2078.       2044.       2027.    
        2009.       2025.       1991.       1911.       1899.       1887.       1875.       1863.       1851.       1840.    
        1828.       1817.       1805.       1794.       1783.       1772.       1761.       1750.       1739.       1729.    
        1719.       1709.       1699.       1689.       1680.       1670.       1661.       1652.       1644.       1635.    
        1627.       1620.       1612.       1605.       1598.       1592.    
 113    2075.       2054.       2034.       2189.       2003.       1876.       1776.       1811.       1851.       1843.    
        1867.       1865.       1881.       1908.       1911.       1892.       1897.       1886.       1896.       1858.    
        1863.       1841.       1872.       1831.       1792.       1822.       1806.       1773.       1772.       1808.    
        1858.       1891.       1874.       1911.       1966.       1971.       2023.       2051.       2039.       2007.    
        1987.       2006.       1916.       1903.       1891.       1879.       1867.       1855.       1843.       1831.    
        1819.       1807.       1796.       1784.       1773.       1762.       1750.       1739.       1729.       1718.    
        1707.       1697.       1687.       1677.       1667.       1657.       1648.       1638.       1629.       1620.    
        1612.       1604.       1596.       1588.       1581.       1574.    
 114    2049.       2028.       2008.       2037.       1950.       1842.       1774.       1819.       1842.       1855.    
        1857.       1868.       1904.       1909.       1890.       1859.       1863.       1859.       1885.       1857.    
        1860.       1828.       1852.       1823.       1791.       1787.       1776.       1761.       1802.       1845.    
        1854.       1864.       1881.       1895.       1925.       1987.       2006.       2043.       2029.       2014.    
        2012.       2002.       1908.       1896.       1883.       1871.       1858.       1846.       1834.       1822.    
        1810.       1798.       1786.       1775.       1763.       1752.       1740.       1729.       1718.       1707.    
        1696.       1686.       1675.       1665.       1655.       1645.       1635.       1625.       1616.       1606.    
        1597.       1589.       1580.       1572.       1564.       1556.    
 115    2021.       2000.       1978.       1986.       1906.       1825.       1788.       1804.       1836.       1840.    
        1851.       1885.       1894.       1875.       1873.       1857.       1834.       1837.       1864.       1846.    
        1821.       1800.       1796.       1801.       1774.       1752.       1759.       1794.       1829.       1860.    
        1876.       1886.       1906.       1921.       1936.       2012.       2029.       2043.       2034.       2018.    
        2001.       1914.       1901.       1888.       1875.       1863.       1850.       1838.       1826.       1814.    
        1801.       1789.       1777.       1766.       1754.       1742.       1731.       1719.       1708.       1697.    
        1686.       1675.       1664.       1654.       1643.       1633.       1623.       1613.       1603.       1593.    
        1584.       1575.       1566.       1557.       1549.       1540.    
 116    1990.       1969.       2038.       1937.       1874.       1832.       1818.       1810.       1818.       1843.    
        1879.       1893.       1881.       1845.       1840.       1833.       1811.       1816.       1834.       1846.    
        1788.       1778.       1762.       1769.       1747.       1754.       1788.       1824.       1843.       1861.    
        1883.       1903.       1911.       1938.       1982.       2023.       1996.       1991.       1991.       2012.    
        2011.       1907.       1894.       1881.       1868.       1855.       1843.       1830.       1818.       1805.    
        1793.       1781.       1769.       1757.       1745.       1733.       1721.       1710.       1698.       1687.    
        1676.       1665.       1654.       1643.       1632.       1621.       1611.       1601.       1591.       1581.    
        1571.       1561.       1552.       1543.       1534.       1525.    
 117    1955.       1934.       1938.       1893.       1858.       1846.       1834.       1810.       1827.       1855.    
        1869.       1871.       1852.       1834.       1813.       1821.       1811.       1795.       1809.       1822.    
        1787.       1764.       1747.       1740.       1751.       1776.       1812.       1834.       1854.       1873.    
        1896.       1928.       1932.       1949.       2000.       2026.       1979.       1953.       1981.       1974.    
        1913.       1900.       1887.       1874.       1861.       1848.       1835.       1823.       1810.       1797.    
        1785.       1773.       1760.       1748.       1736.       1724.       1712.       1701.       1689.       1677.    
        1666.       1655.       1643.       1632.       1621.       1610.       1600.       1589.       1579.       1569.    
        1558.       1549.       1539.       1529.       1520.       1511.    
 118    1916.       1896.       1889.       1859.       1819.       1817.       1796.       1812.       1832.       1822.    
        1821.       1841.       1821.       1800.       1802.       1801.       1815.       1780.       1789.       1798.    
        1787.       1759.       1731.       1748.       1773.       1795.       1814.       1826.       1838.       1854.    
        1875.       1907.       1943.       1960.       2008.       2015.       1986.       1935.       1939.       1948.    
        1907.       1893.       1880.       1867.       1854.       1841.       1828.       1815.       1802.       1790.    
        1777.       1765.       1752.       1740.       1728.       1716.       1704.       1692.       1680.       1668.    
        1657.       1645.       1634.       1622.       1611.       1600.       1589.       1578.       1568.       1557.    
        1547.       1536.       1526.       1517.       1507.       1497.    
 119    1874.       1880.       1842.       1793.       1801.       1783.       1800.       1831.       1818.       1795.    
        1792.       1804.       1793.       1781.       1778.       1779.       1794.       1789.       1764.       1778.    
        1763.       1728.       1736.       1762.       1795.       1825.       1835.       1851.       1867.       1866.    
        1899.       1901.       1926.       1960.       2003.       1980.       1948.       1930.       1915.       1914.    
        1901.       1887.       1874.       1860.       1847.       1834.       1821.       1808.       1795.       1782.    
        1770.       1757.       1744.       1732.       1720.       1707.       1695.       1683.       1671.       1659.    
        1647.       1636.       1624.       1613.       1601.       1590.       1579.       1568.       1557.       1546.    
        1535.       1525.       1515.       1504.       1494.       1485.    
 120    1826.       1812.       1767.       1775.       1766.       1777.       1803.       1819.       1791.       1771.    
        1768.       1776.       1769.       1755.       1752.       1761.       1775.       1771.       1750.       1761.    
        1729.       1732.       1759.       1789.       1809.       1835.       1855.       1875.       1895.       1890.    
        1896.       1929.       1956.       1986.       2042.       2016.       1947.       1906.       1891.       1909.    
        1895.       1881.       1868.       1854.       1841.       1827.       1814.       1801.       1788.       1775.    
        1762.       1750.       1737.       1724.       1712.       1699.       1687.       1675.       1663.       1651.    
        1639.       1627.       1615.       1603.       1592.       1580.       1569.       1558.       1546.       1535.    
        1525.       1514.       1503.       1493.       1482.       1472.    
 121    1773.       1741.       1758.       1769.       1759.       1788.       1814.       1807.       1780.       1759.    
        1750.       1749.       1764.       1782.       1750.       1770.       1758.       1753.       1733.       1721.    
        1719.       1753.       1785.       1797.       1821.       1845.       1867.       1889.       1918.       1923.    
        1910.       1930.       1973.       2019.       1999.       1985.       1963.       1934.       1918.       1903.    
        1889.       1876.       1862.       1848.       1835.       1821.       1808.       1794.       1781.       1768.    
        1755.       1742.       1729.       1717.       1704.       1692.       1679.       1667.       1654.       1642.    
        1630.       1618.       1606.       1594.       1582.       1571.       1559.       1548.       1536.       1525.    
        1514.       1503.       1492.       1482.       1471.       1461.    
 122    1715.       1714.       1743.       1745.       1769.       1795.       1808.       1806.       1775.       1746.    
        1732.       1728.       1758.       1749.       1725.       1720.       1713.       1713.       1710.       1711.    
        1731.       1756.       1795.       1803.       1825.       1863.       1896.       1902.       1933.       1956.    
        1941.       1953.       1984.       2016.       1992.       1957.       1933.       1927.       1913.       1899.    
        1884.       1870.       1856.       1842.       1829.       1815.       1802.       1788.       1775.       1761.    
        1748.       1735.       1722.       1709.       1697.       1684.       1671.       1659.       1646.       1634.    
        1622.       1609.       1597.       1585.       1573.       1562.       1550.       1538.       1527.       1515.    
        1504.       1493.       1482.       1471.       1460.       1449.    
 123    1670.       1738.       1733.       1751.       1780.       1791.       1783.       1774.       1760.       1736.    
        1720.       1712.       1714.       1701.       1697.       1695.       1695.       1700.       1709.       1729.    
        1755.       1781.       1788.       1808.       1844.       1884.       1907.       1933.       1939.       1974.    
        1979.       1997.       1997.       1981.       1976.       1976.       1959.       1921.       1908.       1894.    
        1880.       1865.       1851.       1837.       1823.       1809.       1796.       1782.       1768.       1755.    
        1742.       1729.       1715.       1702.       1689.       1677.       1664.       1651.       1639.       1626.    
        1614.       1601.       1589.       1577.       1565.       1553.       1541.       1529.       1517.       1506.    
        1494.       1483.       1472.       1461.       1449.       1439.    
 124    1716.       1724.       1734.       1765.       1778.       1767.       1756.       1737.       1728.       1723.    
        1717.       1689.       1682.       1682.       1685.       1697.       1711.       1724.       1732.       1753.    
        1775.       1804.       1817.       1829.       1865.       1896.       1937.       1954.       1983.       1977.    
        2023.       1998.       2003.       1959.       1941.       1961.       1925.       1915.       1904.       1890.    
        1875.       1861.       1846.       1832.       1818.       1804.       1790.       1776.       1762.       1749.    
        1735.       1722.       1709.       1696.       1683.       1670.       1657.       1644.       1631.       1618.    
        1606.       1593.       1581.       1569.       1556.       1544.       1532.       1520.       1508.       1497.    
        1485.       1473.       1462.       1451.       1439.       1428.    
 125    1706.       1730.       1760.       1756.       1742.       1735.       1718.       1709.       1706.       1692.    
        1671.       1673.       1678.       1694.       1722.       1726.       1734.       1751.       1762.       1758.    
        1774.       1807.       1842.       1872.       1895.       1934.       1951.       1980.       1982.       1949.    
        1985.       1977.       1972.       1979.       1921.       1927.       1921.       1911.       1900.       1888.    
        1874.       1858.       1841.       1827.       1813.       1799.       1785.       1771.       1757.       1743.    
        1729.       1716.       1702.       1689.       1676.       1663.       1650.       1637.       1624.       1611.    
        1598.       1586.       1573.       1561.       1548.       1536.       1524.       1512.       1500.       1488.    
        1476.       1464.       1452.       1441.       1429.       1418.    
 126    1710.       1731.       1728.       1726.       1712.       1702.       1691.       1678.       1665.       1666.    
        1681.       1704.       1727.       1723.       1714.       1732.       1745.       1767.       1784.       1796.    
        1791.       1797.       1845.       1881.       1903.       1915.       1920.       1938.       1948.       1923.    
        1939.       1950.       1934.       1949.       1948.       1944.       1911.       1909.       1899.       1887.    
        1873.       1858.       1842.       1823.       1808.       1794.       1780.       1766.       1751.       1737.    
        1724.       1710.       1696.       1683.       1669.       1656.       1643.       1630.       1617.       1604.    
        1591.       1578.       1565.       1553.       1540.       1528.       1516.       1503.       1491.       1479.    
        1467.       1455.       1443.       1432.       1420.       1408.    
 127    1702.       1710.       1714.       1699.       1688.       1677.       1659.       1653.       1672.       1708.    
        1731.       1755.       1774.       1747.       1728.       1753.       1771.       1784.       1815.       1833.    
        1821.       1812.       1826.       1850.       1870.       1887.       1882.       1914.       1934.       1900.    
        1917.       1918.       1920.       1935.       1966.       1998.       1961.       1896.       1897.       1887.    
        1874.       1860.       1844.       1827.       1808.       1788.       1775.       1761.       1746.       1732.    
        1718.       1704.       1691.       1677.       1663.       1650.       1636.       1623.       1610.       1597.    
        1584.       1571.       1558.       1545.       1533.       1520.       1508.       1495.       1483.       1471.    
        1458.       1446.       1434.       1423.       1411.       1399.    
 128    1674.       1672.       1666.       1668.       1661.       1651.       1658.       1698.       1725.       1740.    
        1760.       1771.       1791.       1773.       1753.       1779.       1804.       1813.       1824.       1815.    
        1809.       1803.       1801.       1824.       1843.       1855.       1867.       1915.       1917.       1918.    
        1894.       1899.       1905.       1924.       1968.       2027.       2049.       1979.       1880.       1873.    
        1877.       1863.       1848.       1831.       1813.       1793.       1771.       1754.       1742.       1727.    
        1713.       1699.       1685.       1671.       1657.       1644.       1630.       1617.       1603.       1590.    
        1577.       1564.       1551.       1538.       1525.       1512.       1500.       1487.       1475.       1462.    
        1450.       1438.       1426.       1414.       1402.       1390.    
 129    1657.       1648.       1641.       1637.       1646.       1675.       1719.       1738.       1749.       1763.    
        1775.       1783.       1794.       1797.       1780.       1775.       1786.       1785.       1790.       1795.    
        1773.       1773.       1784.       1804.       1843.       1844.       1883.       1867.       1872.       1877.    
        1881.       1886.       1891.       1898.       1953.       2025.       2103.       2099.       1996.       1865.    
        1838.       1866.       1853.       1837.       1820.       1800.       1779.       1757.       1734.       1721.    
        1709.       1694.       1680.       1666.       1652.       1638.       1624.       1611.       1597.       1584.    
        1570.       1557.       1544.       1531.       1518.       1505.       1492.       1480.       1467.       1455.    
        1442.       1430.       1418.       1405.       1393.       1381.    
 130    1636.       1624.       1626.       1640.       1688.       1704.       1723.       1725.       1744.       1750.    
        1743.       1748.       1775.       1778.       1767.       1757.       1766.       1765.       1775.       1763.    
        1754.       1754.       1774.       1808.       1829.       1839.       1847.       1854.       1859.       1864.    
        1868.       1872.       1877.       1883.       1923.       2007.       2107.       2184.       2150.       2013.    
        1849.       1799.       1843.       1845.       1828.       1809.       1789.       1767.       1744.       1719.    
        1699.       1688.       1675.       1661.       1647.       1633.       1619.       1605.       1591.       1578.    
        1564.       1551.       1537.       1524.       1511.       1498.       1485.       1472.       1460.       1447.    
        1434.       1422.       1409.       1397.       1385.       1373.    
 131    1616.       1622.       1628.       1649.       1675.       1694.       1703.       1740.       1751.       1731.    
        1708.       1722.       1750.       1756.       1751.       1748.       1747.       1755.       1762.       1762.    
        1772.       1784.       1796.       1806.       1815.       1825.       1834.       1841.       1847.       1851.    
        1855.       1859.       1864.       1869.       1876.       1972.       2085.       2205.       2266.       2200.    
        2031.       1834.       1756.       1803.       1836.       1820.       1800.       1779.       1756.       1732.    
        1707.       1680.       1665.       1655.       1642.       1628.       1613.       1599.       1586.       1572.    
        1558.       1545.       1531.       1518.       1504.       1491.       1478.       1465.       1452.       1439.    
        1427.       1414.       1402.       1389.       1377.       1364.    



             MODEL LAYER BOTTOM EL. FOR LAYER   1
 READING ON UNIT 5012 WITH FORMAT: (FREE)              

            1           2           3           4           5           6           7           8           9          10
           11          12          13          14          15          16          17          18          19          20
           21          22          23          24          25          26          27          28          29          30
           31          32          33          34          35          36          37          38          39          40
           41          42          43          44          45          46          47          48          49          50
           51          52          53          54          55          56          57          58          59          60
           61          62          63          64          65          66          67          68          69          70
           71          72          73          74          75          76
 ........................................................................................................................
   1  -3.0264E+04 -2.9713E+04 -2.8673E+04 -2.7073E+04 -2.4839E+04 -2.1889E+04 -1.8139E+04 -1.3497E+04  -7866.      -1711.    
        4335.       4719.       5007.       4933.       4865.       4808.       4761.       4725.       4699.       4680.    
        4670.       4666.       4668.       4676.       4688.       4703.       4721.       4742.       4763.       4784.    
        4805.       4824.       4842.       4856.       4866.       4872.       4872.       4865.       4852.       4831.    
        4800.       4761.       4710.       4649.       4575.       4488.       4388.       4272.       4142.       3995.    
        3831.       3649.       3456.       3657.       3921.       4061.       4003.       3854.       3649.       3425.    
        3218.       3066.       3007.       3075.       3310.       3643.       3611.       3419.       3584.       3595.    
        3647.       3683.       3851.       3775.       3882.       3830.    
   2  -2.7993E+04 -2.8010E+04 -2.7623E+04 -2.6768E+04 -2.5372E+04 -2.3359E+04 -2.0647E+04 -1.7145E+04 -1.2760E+04  -7391.    
       -1499.       4285.       4658.       4932.       4857.       4789.       4733.       4687.       4652.       4625.    
        4607.       4597.       4594.       4596.       4604.       4616.       4631.       4650.       4670.       4691.    
        4712.       4733.       4752.       4769.       4783.       4793.       4798.       4798.       4791.       4777.    
        4756.       4725.       4684.       4633.       4571.       4497.       4409.       4308.       4192.       4061.    
        3913.       3748.       3565.       3479.       3603.       3710.       3784.       3921.       3904.       3863.    
        3620.       3226.       3010.       3062.       3334.       3715.       3641.       3545.       3758.       3746.    
        3705.       3625.       3779.       3981.       3982.       3899.    
   3  -2.5169E+04 -2.5633E+04 -2.5782E+04 -2.5551E+04 -2.4874E+04 -2.3678E+04 -2.1884E+04 -1.9406E+04 -1.6152E+04 -1.2023E+04
       -6916.      -1286.       4236.       4596.       4857.       4781.       4714.       4658.       4613.       4578.    
        4552.       4534.       4524.       4521.       4524.       4532.       4544.       4559.       4578.       4598.    
        4619.       4640.       4661.       4680.       4696.       4710.       4720.       4725.       4724.       4717.    
        4703.       4680.       4649.       4608.       4556.       4493.       4418.       4330.       4228.       4111.    
        3979.       3830.       3665.       3481.       3285.       3526.       3754.       3986.       3840.       3519.    
        3235.       3097.       3151.       3274.       3315.       3811.       3748.       3643.       3870.       3733.    
        3723.       3594.       3796.       3871.       3808.       3844.    
   4  -2.1960E+04 -2.2753E+04 -2.3313E+04 -2.3583E+04 -2.3500E+04 -2.2995E+04 -2.1993E+04 -2.0413E+04 -1.8167E+04 -1.5159E+04
      -1.1287E+04  -6440.      -1073.       4186.       4534.       4781.       4706.       4639.       4584.       4539.    
        4504.       4478.       4461.       4451.       4448.       4451.       4459.       4472.       4487.       4506.    
        4526.       4547.       4568.       4588.       4607.       4624.       4637.       4647.       4651.       4650.    
        4643.       4628.       4605.       4573.       4532.       4479.       4416.       4340.       4251.       4148.    
        4031.       3898.       3733.       3610.       3425.       3709.       3705.       3931.       3811.       3460.    
        3215.       3309.       3371.       3532.       3457.       3819.       3866.       3774.       3718.       3697.    
        3569.       3519.       3484.       3749.       3869.       3728.    
   5  -1.8550E+04 -1.9548E+04 -2.0395E+04 -2.1038E+04 -2.1419E+04 -2.1473E+04 -2.1132E+04 -2.0318E+04 -1.8947E+04 -1.6930E+04
      -1.4166E+04 -1.0550E+04  -5965.      -859.6       4137.       4472.       4705.       4630.       4564.       4509.    
        4465.       4430.       4405.       4388.       4379.       4376.       4379.       4387.       4400.       4415.    
        4434.       4454.       4475.       4496.       4516.       4535.       4551.       4564.       4574.       4578.    
        4577.       4569.       4553.       4530.       4498.       4455.       4403.       4338.       4262.       4172.    
        4068.       3765.       3922.       3690.       3605.       3847.       3854.       3843.       3603.       3401.    
        3356.       3567.       3520.       3633.       3597.       3634.       3788.       3913.       3862.       3719.    
        3747.       3694.       3382.       3688.       3965.       3878.    
   6  -1.5134E+04 -1.6212E+04 -1.7218E+04 -1.8102E+04 -1.8813E+04 -1.9292E+04 -1.9473E+04 -1.9287E+04 -1.8653E+04 -1.7488E+04
      -1.5696E+04 -1.3175E+04  -9813.      -5489.      -646.6       4088.       4410.       4630.       4555.       4489.    
        4434.       4391.       4357.       4332.       4315.       4306.       4303.       4307.       4315.       4328.    
        4343.       4362.       4382.       4403.       4424.       4444.       4463.       4479.       4492.       4500.    
        4504.       4503.       4494.       4479.       4455.       4422.       4379.       4325.       4261.       4183.    
        3784.       3889.       3908.       3703.       3760.       3906.       3907.       3697.       3487.       3428.    
        3587.       3760.       3625.       3641.       3520.       3520.       3747.       3882.       3908.       3778.    
        3769.       3592.       3387.       3549.       3834.       3873.    
   7  -1.1917E+04 -1.2951E+04 -1.3986E+04 -1.4980E+04 -1.5884E+04 -1.6647E+04 -1.7209E+04 -1.7505E+04 -1.7462E+04 -1.7002E+04
      -1.6035E+04 -1.4465E+04 -1.2185E+04  -9077.      -5014.      -433.6       4038.       4348.       4554.       4479.    
        4414.       4360.       4316.       4283.       4258.       4242.       4233.       4231.       4234.       4243.    
        4256.       4271.       4290.       4310.       4331.       4352.       4372.       4390.       4406.       4419.    
        4427.       4431.       4429.       4420.       4404.       4379.       4346.       4303.       4248.       3915.    
        3937.       3874.       3911.       3809.       3871.       3929.       3799.       3537.       3356.       3502.    
        3682.       3532.       3508.       3403.       3360.       3532.       3855.       3750.       3808.       3822.    
        3791.       3688.       3322.       3504.       3871.       3942.    
   8   -9118.      -9982.     -1.0918E+04 -1.1886E+04 -1.2846E+04 -1.3751E+04 -1.4547E+04 -1.5176E+04 -1.5572E+04 -1.5662E+04
      -1.5366E+04 -1.4591E+04 -1.3238E+04 -1.1195E+04  -8340.      -4539.      -220.6       3989.       4287.       4478.    
        4404.       4339.       4285.       4242.       4209.       4185.       4169.       4160.       4158.       4162.    
        4171.       4183.       4199.       4218.       4238.       4259.       4280.       4299.       4318.       4333.    
        4346.       4354.       4357.       4355.       4346.       4329.       4304.       4270.       3851.       3578.    
        3670.       3800.       3938.       3910.       3948.       3748.       3469.       3289.       3393.       3583.    
        3774.       3542.       3265.       3308.       3313.       3535.       3808.       3807.       3620.       3552.    
        3728.       3599.       3298.       3782.       3814.       4024.    
   9   -6966.      -7537.      -8244.      -9054.      -9931.     -1.0833E+04 -1.1714E+04 -1.2523E+04 -1.3200E+04 -1.3681E+04
      -1.3891E+04 -1.3747E+04 -1.3157E+04 -1.2016E+04 -1.0208E+04  -7604.      -4063.      -7.619       3939.       4225.    
        4402.       4328.       4264.       4211.       4168.       4135.       4112.       4096.       4088.       4086.    
        4090.       4099.       4111.       4127.       4146.       4166.       4187.       4207.       4227.       4245.    
        4261.       4273.       4281.       4284.       4281.       4271.       4254.       3779.       3576.       3192.    
        3240.       3424.       3889.       3930.       3815.       3686.       3449.       3187.       3413.       3713.    
        3676.       3429.       3196.       3545.       3461.       3637.       3904.       3784.       3528.       3312.    
        3307.       3177.       3340.       3849.       3999.       3938.    
  10   -5698.      -5856.      -6209.      -6729.      -7384.      -8140.      -8957.      -9790.     -1.0588E+04 -1.1293E+04
      -1.1839E+04 -1.2153E+04 -1.2150E+04 -1.1734E+04 -1.0798E+04  -9221.      -6868.      -3588.       205.4       3890.    
        4163.       4327.       4253.       4189.       4136.       4094.       4062.       4038.       4023.       4015.    
        4013.       4017.       4026.       4039.       4055.       4074.       4094.       4115.       4135.       4155.    
        4173.       4188.       4200.       4208.       4210.       4207.       3712.       3535.       3349.       3229.    
        3177.       3309.       3606.       3793.       3779.       3727.       3510.       3160.       3446.       3655.    
        3526.       3210.       3321.       3711.       3562.       3764.       3711.       3525.       3462.       3633.    
        3466.       3066.       3510.       3872.       3942.       3771.    
  11   -5025.      -5047.      -5066.      -5167.      -5466.      -5935.      -6539.      -7240.      -7996.      -8756.    
       -9465.     -1.0056E+04 -1.0455E+04 -1.0577E+04 -1.0325E+04  -9587.      -8237.      -6133.      -3113.       418.3    
        3841.       4101.       4251.       4177.       4114.       4062.       4020.       3988.       3965.       3950.    
        3942.       3941.       3945.       3954.       3967.       3984.       4002.       4022.       4043.       4063.    
        4083.       4100.       4115.       4127.       4134.       3651.       3652.       3353.       3286.       3544.    
        3307.       3547.       3714.       3489.       3376.       3326.       3286.       3142.       3411.       3640.    
        3397.       3121.       3357.       3765.       3868.       3849.       3888.       3816.       3799.       3562.    
        3123.       3058.       3457.       3638.       3863.       3834.    
  12   -4387.      -4405.      -4419.      -4431.      -4439.      -4494.      -4739.      -5155.      -5707.      -6354.    
       -7047.      -7730.      -8341.      -8805.      -9035.      -8933.      -8384.      -7256.      -5397.      -2637.    
        631.3       3791.       4039.       4175.       4102.       4039.       3987.       3946.       3914.       3892.    
        3877.       3870.       3868.       3873.       3882.       3895.       3912.       3930.       3950.       3971.    
        3991.       4010.       4028.       4043.       3593.       3473.       3677.       3558.       3431.       3726.    
        3487.       3834.       3656.       3471.       3364.       3287.       3161.       3140.       3482.       3571.    
        3287.       3079.       3372.       3735.       3799.       3689.       3884.       3836.       3677.       3274.    
        2974.       3177.       3320.       3431.       3825.       3935.    
  13   -3784.      -3797.      -3807.      -3814.      -3818.      -3819.      -3818.      -3835.      -4025.      -4390.    
       -4891.      -5481.      -6108.      -6710.      -7213.      -7531.      -7563.      -7191.      -6277.      -4662.    
       -2162.       844.3       3742.       3977.       4099.       4026.       3964.       3913.       3872.       3841.    
        3818.       3804.       3797.       3796.       3801.       3810.       3823.       3840.       3858.       3878.    
        3899.       3919.       3938.       3537.       3215.       3360.       3514.       3804.       3656.       3927.    
        3863.       3784.       3707.       3692.       3533.       3560.       3204.       3142.       3577.       3579.    
        3220.       3027.       3273.       3665.       3613.       3541.       3727.       3522.       3301.       3006.    
        3170.       3202.       3630.       3569.       3785.       3897.    
  14   -3213.      -3222.      -3228.      -3231.      -3230.      -3227.      -3221.      -3212.      -3201.      -3192.    
       -3327.      -3640.      -4088.      -4622.      -5180.      -5692.      -6072.      -6218.      -6010.      -5303.    
       -3928.      -1686.       1057.       3692.       3916.       4024.       3951.       3889.       3838.       3798.    
        3767.       3745.       3731.       3724.       3723.       3728.       3738.       3751.       3768.       3786.    
        3806.       3827.       3485.       3211.       3116.       3271.       3499.       3841.       3904.       3843.    
        3757.       3696.       3553.       3766.       3557.       3378.       3225.       3005.       3227.       3393.    
        3361.       3016.       3165.       3466.       3229.       3259.       3293.       3111.       2972.       3260.    
        3516.       3507.       3472.       3772.       3749.       3842.    
  15   -2674.      -2680.      -2682.      -2681.      -2677.      -2669.      -2659.      -2646.      -2629.      -2610.    
       -2589.      -2564.      -2643.      -2904.      -3300.      -3775.      -4260.      -4672.      -4908.      -4845.    
       -4334.      -3194.      -1211.       1270.       3643.       3854.       3948.       3876.       3814.       3764.    
        3724.       3694.       3672.       3658.       3651.       3651.       3656.       3666.       3679.       3696.    
        3714.       3439.       3407.       3379.       3208.       3161.       3482.       3862.       3949.       3765.    
        3603.       3366.       3174.       3322.       3198.       3006.       3013.       2991.       2928.       3013.    
        3302.       3120.       2953.       2998.       2910.       2936.       3017.       3100.       3099.       3446.    
        3817.       3848.       3667.       3700.       3789.       3878.    
  16   -2167.      -2169.      -2168.      -2164.      -2156.      -2144.      -2130.      -2113.      -2092.      -2069.    
       -2042.      -2013.      -1981.      -1946.      -1973.      -2182.      -2526.      -2941.      -3346.      -3641.    
       -3701.      -3372.      -2462.      -735.7       1483.       3594.       3792.       3872.       3800.       3740.    
        3690.       3650.       3620.       3599.       3585.       3579.       3579.       3584.       3594.       3607.    
        3406.       3645.       3671.       3529.       3607.       3370.       3512.       3921.       3972.       3875.    
        3712.       3225.       3188.       3089.       3100.       3342.       3478.       3372.       3072.       2952.    
        2931.       2882.       2826.       2941.       3119.       3197.       3198.       3549.       3342.       3148.    
        3531.       3861.       3763.       3630.       3888.       3829.    
  17   -1689.      -1689.      -1685.      -1678.      -1666.      -1652.      -1634.      -1613.      -1588.      -1560.    
       -1530.      -1496.      -1460.      -1420.      -1378.      -1333.      -1319.      -1475.      -1767.      -2118.    
       -2432.      -2586.      -2420.      -1730.      -260.3       1696.       3544.       3730.       3796.       3725.    
        3665.       3615.       3576.       3546.       3525.       3512.       3506.       3506.       3511.       3395.    
        3534.       3504.       3755.       3891.       3914.       3677.       3675.       3854.       3803.       3580.    
        3329.       3276.       3573.       3468.       3422.       3624.       3625.       3258.       3378.       3301.    
        3024.       2817.       2992.       3299.       3448.       3502.       3269.       3708.       3717.       3211.    
        3483.       3821.       3798.       3663.       3865.       3826.    
  18   -1240.      -1238.      -1232.      -1222.      -1208.      -1191.      -1169.      -1145.      -1117.      -1085.    
       -1051.      -1013.      -972.3      -928.5      -881.8      -832.3      -780.0      -724.9      -679.0      -782.7    
       -1021.      -1304.      -1511.      -1482.      -1001.       215.1       1909.       3495.       3668.       3721.    
        3650.       3590.       3541.       3502.       3473.       3452.       3439.       3433.       3409.       3347.    
        3331.       3404.       3506.       3719.       3975.       3845.       3799.       3660.       3509.       3317.    
        3442.       3575.       3625.       3588.       3730.       3708.       3453.       3529.       3739.       3596.    
        3311.       2862.       3223.       3681.       3767.       3731.       3631.       3840.       3764.       3285.    
        3669.       3848.       3820.       3814.       3751.       3747.    
  19   -819.5      -815.7      -807.7      -795.5      -779.4      -759.4      -735.6      -708.1      -677.0      -642.4    
       -604.3      -562.9      -518.2      -470.4      -419.4      -365.5      -308.6      -248.9      -186.4      -121.2    
       -54.33      -104.7      -288.8      -495.1      -565.4      -275.3       690.5       2122.       3445.       3606.    
        3645.       3574.       3515.       3467.       3428.       3399.       3379.       3466.       3242.       3366.    
        3343.       3435.       3603.       3853.       3832.       3614.       3813.       3768.       3610.       3456.    
        3762.       3843.       3718.       3661.       3773.       3599.       3410.       3579.       3839.       3619.    
        3250.       2937.       3303.       3585.       3731.       3894.       3827.       3880.       3668.       3313.    
        3779.       3823.       3895.       3836.       3795.       3590.    
  20   -425.7      -420.7      -411.3      -397.5      -379.6      -357.6      -331.6      -301.7      -267.9      -230.4    
       -189.3      -144.6      -96.50      -45.01       9.745       67.69       128.7       192.8       259.8       329.7    
        402.4       477.9       556.2       558.8       430.5       316.8       445.3       1166.       2335.       3396.    
        3544.       3569.       3499.       3440.       3392.       3354.       3318.       3329.       3484.       3315.    
        3309.       3390.       3527.       3753.       3902.       3487.       3825.       3904.       3662.       3602.    
        3870.       3622.       3555.       3548.       3635.       3666.       3510.       3722.       3813.       3663.    
        3222.       2938.       3169.       3490.       3691.       3836.       3884.       3783.       3540.       3410.    
        3771.       3846.       3729.       3782.       3803.       3749.    
  21   -57.69      -51.97      -41.65      -26.82      -7.574       15.99       43.77       75.68       111.6       151.5    
        195.2       242.7       293.8       348.5       406.7       468.2       533.0       601.1       672.3       746.5    
        823.7       903.7       986.6       1072.       1161.       1208.       1139.       1156.       1641.       2548.    
        3347.       3483.       3494.       3424.       3366.       3317.       3425.       3484.       3419.       3270.    
        3306.       3441.       3573.       3802.       3689.       3456.       3658.       3733.       3710.       3667.    
        3554.       3383.       3251.       3301.       3431.       3399.       3557.       3736.       3609.       3365.    
        3148.       2930.       3252.       3410.       3519.       3769.       3913.       3741.       3637.       3507.    
        3702.       3778.       3656.       3696.       3875.       3882.    
  22    285.5       291.5       302.2       317.7       337.8       362.4       391.5       424.9       462.6       504.4    
        550.2       600.0       653.7       711.2       772.3       837.0       905.2       976.8       1052.       1130.    
        1211.       1295.       1383.       1473.       1566.       1662.       1761.       1842.       1843.       2117.    
        2761.       3297.       3421.       3418.       3310.       3226.       3200.       3455.       3477.       3312.    
        3362.       3475.       3612.       3707.       3528.       3311.       3500.       3652.       3730.       3685.    
        3644.       3526.       3300.       3181.       3323.       3320.       3496.       3512.       3445.       3271.    
        3135.       2933.       3365.       3537.       3667.       3741.       3921.       3832.       3702.       3674.    
        3716.       3678.       3590.       3508.       3660.       3858.    
  23    605.0       610.7       621.4       637.0       657.5       682.8       712.7       747.1       786.0       829.2    
        876.8       928.4       984.2       1044.       1108.       1175.       1246.       1321.       1399.       1481.    
        1566.       1654.       1745.       1840.       1937.       2038.       2141.       2247.       2356.       2462.    
        2592.       2974.       3248.       3423.       3454.       3334.       3287.       3338.       3447.       3343.    
        3354.       3432.       3588.       3482.       3396.       3158.       3542.       3692.       3580.       3652.    
        3615.       3644.       3393.       3127.       3223.       3379.       3377.       3335.       3269.       3205.    
        3194.       2923.       3339.       3562.       3641.       3742.       3836.       3868.       3734.       3755.    
        3839.       3769.       3619.       3521.       3511.       3791.    
  24    902.4       906.8       916.9       932.3       952.7       978.0       1008.       1043.       1083.       1127.    
        1176.       1229.       1286.       1348.       1414.       1483.       1557.       1634.       1715.       1800.    
        1888.       1980.       2075.       2173.       2275.       2379.       2487.       2598.       2711.       2827.    
        2946.       3068.       3124.       3243.       3475.       3445.       3422.       3480.       3505.       3455.    
        3411.       3463.       3599.       3496.       3187.       3146.       3354.       3389.       3435.       3650.    
        3464.       3534.       3338.       3096.       3239.       3254.       3236.       3293.       3257.       3134.    
        3082.       2891.       3201.       3428.       3624.       3710.       3790.       3814.       3720.       3782.    
        3830.       3789.       3702.       3568.       3515.       3716.    
  25    1190.       1187.       1191.       1204.       1224.       1249.       1279.       1314.       1354.       1399.    
        1449.       1503.       1561.       1624.       1691.       1763.       1838.       1918.       2001.       2089.    
        2180.       2275.       2373.       2475.       2580.       2688.       2800.       2914.       3032.       3153.    
        3276.       3435.       3436.       3295.       3458.       3504.       3525.       3580.       3433.       3305.    
        3281.       3493.       3474.       3343.       3143.       3056.       3123.       3232.       3404.       3570.    
        3427.       3326.       3216.       3032.       3108.       3174.       3244.       3293.       3236.       3260.    
        3250.       2835.       3106.       3441.       3754.       3752.       3811.       3705.       3587.       3683.    
        3809.       3820.       3727.       3598.       3686.       3639.    
  26    1458.       1453.       1455.       1462.       1476.       1498.       1527.       1562.       1602.       1646.    
        1696.       1750.       1810.       1874.       1942.       2015.       2092.       2173.       2258.       2348.    
        2441.       2539.       2640.       2744.       2853.       2965.       3080.       3198.       3320.       3445.    
        3573.       3461.       3662.       3441.       3403.       3234.       3326.       3324.       3143.       3151.    
        3354.       3521.       3509.       3290.       3120.       2951.       3232.       3459.       3495.       3475.    
        3388.       3289.       3102.       2980.       3130.       3251.       3366.       3423.       3454.       3557.    
        3418.       2859.       2871.       3040.       3271.       3333.       3498.       3402.       3348.       3638.    
        3791.       3822.       3721.       3718.       3697.       3564.    
  27    1706.       1699.       1698.       1704.       1715.       1732.       1756.       1786.       1825.       1870.    
        1919.       1974.       2033.       2097.       2166.       2240.       2318.       2401.       2487.       2579.    
        2674.       2773.       2877.       2984.       3095.       3210.       3328.       3450.       3575.       3704.    
        3423.       3525.       3661.       3578.       3349.       3122.       3156.       3152.       3026.       3176.    
        3266.       3537.       3536.       3426.       3150.       2947.       3237.       3592.       3656.       3544.    
        3382.       3160.       2973.       2972.       3194.       3367.       3514.       3612.       3711.       3633.    
        3197.       2802.       2954.       3128.       3026.       3036.       3132.       3307.       3365.       3471.    
        3747.       3810.       3794.       3796.       3635.       3495.    
  28    1936.       1925.       1922.       1925.       1934.       1949.       1970.       1998.       2031.       2071.    
        2119.       2173.       2232.       2296.       2365.       2439.       2518.       2601.       2689.       2782.    
        2879.       2980.       3085.       3194.       3307.       3425.       3546.       3670.       3799.       3931.    
        3375.       3534.       3454.       3427.       3339.       3083.       3003.       2980.       2982.       3084.    
        3280.       3563.       3544.       3298.       3098.       2904.       3146.       3329.       3427.       3325.    
        3194.       3177.       2979.       3014.       3268.       3440.       3583.       3730.       3762.       3490.    
        3050.       2851.       3257.       3417.       3543.       3310.       3524.       3653.       3747.       3450.    
        3661.       3781.       3781.       3616.       3471.       3504.    
  29    2147.       2134.       2127.       2127.       2133.       2146.       2165.       2190.       2221.       2258.    
        2301.       2350.       2408.       2472.       2541.       2614.       2693.       2777.       2865.       2959.    
        3056.       3159.       3265.       3376.       3491.       3610.       3734.       3861.       3992.       3292.    
        3349.       3224.       3252.       3256.       3243.       3136.       2984.       2900.       3082.       3169.    
        3291.       3561.       3651.       3458.       3113.       2906.       2926.       3105.       3185.       3026.    
        3140.       3328.       2976.       2971.       3235.       3439.       3584.       3701.       3734.       3408.    
        2977.       2926.       3542.       3610.       3814.       3591.       3681.       3810.       3850.       3749.    
        3927.       3904.       3829.       3675.       3586.       3620.    
  30    2342.       2325.       2314.       2311.       2314.       2323.       2339.       2362.       2391.       2426.    
        2467.       2514.       2567.       2626.       2693.       2766.       2845.       2928.       3017.       3110.    
        3208.       3311.       3419.       3531.       3647.       3768.       3893.       4022.       4155.       3124.    
        2949.       3029.       3078.       3112.       3131.       3033.       2917.       2930.       3078.       3161.    
        3210.       3388.       3446.       3380.       3243.       3076.       2778.       2965.       2933.       2887.    
        3136.       3372.       2982.       3061.       3423.       3437.       3585.       3669.       3409.       3167.    
        2858.       2868.       3462.       3840.       3900.       3905.       3737.       3796.       3876.       3904.    
        3909.       3766.       3800.       3809.       3708.       3743.    
  31    2521.       2500.       2485.       2477.       2477.       2483.       2495.       2515.       2541.       2573.    
        2612.       2657.       2708.       2765.       2828.       2897.       2973.       3056.       3144.       3237.    
        3335.       3438.       3546.       3659.       3776.       3898.       4024.       4155.       3162.       2843.    
        2845.       2905.       3011.       3070.       3115.       2956.       2845.       2890.       3058.       3033.    
        3080.       3214.       3236.       3349.       3282.       3113.       2795.       2756.       2796.       2793.    
        2993.       3187.       2877.       3329.       3724.       3588.       3604.       3674.       3293.       2760.    
        2725.       2979.       3323.       3498.       3530.       3697.       3860.       3927.       3864.       3717.    
        3788.       3614.       3639.       3749.       3879.       3825.    
  32    2686.       2660.       2640.       2628.       2623.       2625.       2634.       2650.       2673.       2702.    
        2738.       2780.       2828.       2883.       2944.       3011.       3084.       3163.       3248.       3341.    
        3439.       3542.       3649.       3762.       3880.       4002.       4129.       4261.       2970.       2928.    
        2968.       3002.       3166.       3138.       3138.       3024.       2841.       2822.       2946.       2934.    
        3056.       3064.       3158.       3222.       3167.       3178.       2993.       2672.       2681.       2792.    
        2901.       2917.       2926.       3453.       3801.       3622.       3368.       3388.       2847.       2744.    
        3049.       3243.       3326.       3400.       3491.       3411.       3501.       3613.       3821.       3786.    
        3503.       3435.       3352.       3518.       3994.       3870.    
  33    2837.       2805.       2781.       2764.       2754.       2752.       2757.       2768.       2787.       2813.    
        2845.       2884.       2930.       2982.       3040.       3105.       3176.       3253.       3336.       3425.    
        3519.       3621.       3729.       3841.       3959.       4082.       4209.       3029.       3071.       3078.    
        3099.       3219.       3233.       3077.       3036.       2966.       2823.       2742.       2779.       2815.    
        2883.       2969.       3081.       3025.       3010.       3045.       3057.       2689.       2625.       2701.    
        2847.       2847.       3102.       3591.       3695.       3718.       3253.       3007.       2678.       2875.    
        3139.       3213.       3357.       3743.       3795.       3740.       3787.       3836.       3891.       3837.    
        3789.       3490.       3258.       3482.       3844.       3881.    
  34    2980.       2940.       2909.       2886.       2871.       2864.       2864.       2871.       2885.       2907.    
        2935.       2971.       3013.       3062.       3117.       3179.       3247.       3322.       3403.       3490.    
        3583.       3681.       3786.       3897.       4015.       4137.       4264.       2903.       2966.       3192.    
        3237.       3198.       3073.       3071.       2924.       2919.       2728.       2769.       2842.       2848.    
        2852.       2870.       2864.       2882.       2914.       2966.       2923.       2650.       2553.       2651.    
        2839.       2800.       3208.       3436.       3698.       3569.       3090.       2636.       2782.       3140.    
        3530.       3620.       3410.       3387.       3709.       3898.       3932.       3872.       3692.       3601.    
        3813.       3640.       3347.       3702.       3830.       3860.    
  35    3016.       3040.       3027.       2997.       2975.       2962.       2957.       2959.       2969.       2985.    
        3010.       3041.       3079.       3124.       3176.       3235.       3300.       3372.       3450.       3534.    
        3625.       3722.       3825.       3933.       4048.       4169.       4296.       3007.       3135.       3197.    
        3162.       3110.       2984.       2995.       2899.       2812.       2740.       2929.       2989.       3023.    
        3043.       3051.       3072.       3114.       3087.       2989.       2763.       2645.       2494.       2610.    
        2672.       2755.       3104.       3453.       3577.       3400.       2982.       2571.       2873.       3274.    
        3456.       3484.       3822.       3620.       3382.       3588.       3891.       3902.       3808.       3576.    
        3429.       3624.       3297.       4043.       3788.       3810.    
  36    2869.       2953.       3019.       3060.       3068.       3050.       3037.       3033.       3037.       3049.    
        3069.       3095.       3129.       3170.       3218.       3273.       3334.       3403.       3478.       3559.    
        3647.       3742.       3842.       3949.       4062.       4181.       3200.       3126.       3194.       3082.    
        2999.       2994.       2986.       2862.       2874.       2750.       2741.       2830.       2921.       2992.    
        3123.       3182.       3147.       3188.       3188.       3121.       2759.       2729.       2574.       2865.    
        2964.       3032.       3108.       3062.       3082.       3032.       2637.       2622.       2949.       3416.    
        3738.       3864.       3676.       3807.       3622.       3655.       3819.       3715.       3691.       3577.    
        3516.       3671.       3185.       3891.       3720.       3734.    
  37    2650.       2748.       2846.       2938.       3017.       3074.       3101.       3097.       3095.       3100.    
        3114.       3135.       3164.       3200.       3244.       3294.       3352.       3417.       3488.       3566.    
        3651.       3742.       3840.       3945.       4055.       4172.       3124.       3231.       3195.       3016.    
        2908.       2888.       2875.       2812.       2759.       2700.       2793.       2924.       3003.       3055.    
        3152.       3142.       3113.       3109.       3154.       2939.       2692.       2742.       2585.       2859.    
        2984.       2799.       2557.       2550.       2589.       2599.       2589.       2687.       2971.       3346.    
        3620.       3809.       3859.       3990.       3881.       3943.       3812.       3630.       3392.       3213.    
        3455.       3577.       3192.       3632.       3631.       3636.    
  38    2490.       2563.       2644.       2734.       2828.       2922.       3009.       3081.       3127.       3139.    
        3147.       3162.       3185.       3216.       3255.       3301.       3354.       3414.       3481.       3556.    
        3637.       3725.       3820.       3921.       4029.       3085.       3120.       3223.       3203.       3092.    
        3005.       2944.       2800.       2794.       2735.       2711.       2862.       2929.       2926.       2982.    
        3101.       3220.       3173.       3090.       2962.       2712.       2672.       2746.       2639.       2523.    
        2546.       2457.       2683.       2756.       2785.       2822.       3026.       3074.       2888.       3110.    
        3465.       3598.       3892.       3956.       3784.       4047.       3962.       3829.       3713.       2956.    
        3214.       3348.       3530.       3534.       3523.       3518.    
  39    2381.       2449.       2518.       2589.       2660.       2735.       2820.       2911.       3000.       3081.    
        3145.       3176.       3195.       3220.       3252.       3293.       3341.       3396.       3459.       3529.    
        3606.       3690.       3781.       3879.       3983.       3088.       3172.       3271.       3192.       2985.    
        2957.       2932.       2830.       2710.       2652.       2773.       2823.       2863.       2987.       3094.    
        3194.       3181.       3172.       3184.       2923.       2663.       2618.       2618.       2591.       2417.    
        2607.       2813.       3110.       3275.       3404.       3347.       3461.       3436.       3257.       3049.    
        3308.       3611.       3689.       3489.       3588.       3988.       3837.       3876.       3758.       2805.    
        3049.       3101.       3939.       3420.       3399.       3383.    
  40    2286.       2350.       2415.       2482.       2549.       2618.       2687.       2758.       2830.       2909.    
        2995.       3081.       3155.       3206.       3237.       3272.       3314.       3364.       3422.       3487.    
        3560.       3640.       3726.       3820.       2982.       3015.       3111.       3250.       3137.       2971.    
        2860.       2861.       2811.       2698.       2627.       2721.       2821.       2969.       3058.       3054.    
        3160.       3161.       3109.       3161.       2891.       2631.       2562.       2553.       2456.       2602.    
        2950.       3076.       3197.       3354.       3487.       3605.       3738.       3652.       3509.       3362.    
        3256.       3307.       3364.       3521.       3722.       3858.       3876.       3539.       3818.       2758.    
        3035.       2884.       3441.       3294.       3261.       3234.    
  41    2202.       2263.       2325.       2388.       2452.       2517.       2582.       2649.       2717.       2785.    
        2855.       2926.       3000.       3082.       3163.       3229.       3272.       3319.       3372.       3431.    
        3499.       3574.       3656.       3745.       3169.       3118.       3154.       3268.       3092.       2904.    
        2932.       2839.       2787.       2654.       2673.       2830.       2919.       2987.       2976.       2958.    
        3087.       3118.       3088.       3135.       2835.       2597.       2522.       2544.       2495.       2519.    
        2924.       3188.       3325.       3344.       3453.       3588.       3690.       3771.       3610.       3591.    
        3670.       3744.       3726.       3844.       3780.       3674.       3869.       3548.       3301.       2811.    
        2975.       2908.       3211.       3159.       3113.       3075.    
  42    2129.       2187.       2246.       2306.       2367.       2428.       2491.       2554.       2618.       2683.    
        2749.       2816.       2884.       2953.       3023.       3094.       3172.       3247.       3304.       3361.    
        3424.       3494.       3571.       3206.       3154.       3317.       3289.       3225.       3084.       3015.    
        2888.       2807.       2736.       2658.       2671.       2749.       2871.       2872.       2879.       2922.    
        3018.       3013.       3026.       3095.       2733.       2563.       2530.       2565.       2340.       2572.    
        3033.       3232.       3364.       3423.       3528.       3558.       3659.       3777.       3741.       3697.    
        3709.       3756.       3760.       3764.       3822.       3569.       3562.       3601.       3246.       2961.    
        2941.       3410.       3081.       3016.       2958.       2907.    
  43    2065.       2121.       2177.       2235.       2292.       2351.       2410.       2470.       2531.       2593.    
        2655.       2719.       2783.       2848.       2915.       2982.       3050.       3120.       3190.       3263.    
        3332.       3398.       3471.       3336.       3205.       3358.       3405.       3324.       3290.       3087.    
        2970.       2885.       2776.       2643.       2575.       2810.       2862.       2767.       2833.       2973.    
        2949.       2958.       3057.       3010.       2610.       2532.       2532.       2598.       2370.       2579.    
        2870.       3043.       3171.       3356.       3453.       3528.       3630.       3666.       3736.       3647.    
        3594.       3674.       3614.       3765.       3845.       3818.       3508.       3266.       3162.       3172.    
        2979.       3604.       2949.       2870.       2798.       2734.    
  44    2009.       2063.       2117.       2172.       2227.       2283.       2340.       2397.       2455.       2514.    
        2574.       2634.       2695.       2757.       2820.       2883.       2948.       3013.       3080.       3148.    
        3216.       3286.       3357.       3432.       3342.       3373.       3437.       3315.       3157.       3098.    
        2944.       2900.       2749.       2662.       2532.       2735.       2699.       2815.       2894.       2965.    
        2866.       2956.       3030.       3012.       2575.       2496.       2542.       2597.       2363.       2556.    
        3026.       3191.       3259.       3352.       3458.       3533.       3509.       3610.       3637.       3650.    
        3495.       3614.       3545.       3708.       3710.       3783.       3643.       3485.       3650.       3357.    
        3112.       3290.       2817.       2724.       2637.       2558.    
  45    1961.       2012.       2065.       2117.       2171.       2224.       2279.       2334.       2389.       2445.    
        2502.       2560.       2618.       2677.       2737.       2797.       2858.       2920.       2983.       3047.    
        3112.       3178.       3190.       3349.       3425.       3404.       3348.       3084.       2939.       2957.    
        2962.       2891.       2856.       2753.       2494.       2616.       2758.       2851.       2872.       2975.    
        2822.       2842.       2942.       2974.       2598.       2467.       2513.       2539.       2359.       2721.    
        3005.       3156.       3282.       3426.       3384.       3377.       3479.       3598.       3551.       3586.    
        3425.       3572.       3495.       3620.       3613.       3672.       3701.       3823.       3714.       3480.    
        3260.       2805.       2688.       2579.       2478.       2384.    
  46    1918.       1968.       2019.       2070.       2121.       2173.       2225.       2278.       2331.       2385.    
        2440.       2495.       2551.       2607.       2664.       2722.       2780.       2839.       2899.       2960.    
        3021.       3084.       3184.       3258.       3395.       3484.       3309.       3100.       2874.       2785.    
        2847.       2839.       2779.       2766.       2475.       2580.       2731.       2776.       2874.       2869.    
        2773.       2894.       3014.       2970.       2586.       2472.       2469.       2442.       2383.       2847.    
        2970.       3080.       3224.       3309.       3199.       3270.       3492.       3559.       3460.       3471.    
        3386.       3569.       3452.       3537.       3551.       3579.       3769.       3856.       3554.       3452.    
        3135.       2698.       2565.       2440.       2323.       2213.    
  47    1881.       1930.       1979.       2028.       2078.       2128.       2179.       2230.       2281.       2333.    
        2385.       2438.       2492.       2546.       2600.       2656.       2711.       2768.       2825.       2883.    
        2941.       3001.       2882.       3103.       3298.       3531.       3350.       3055.       2874.       2779.    
        2680.       2629.       2583.       2578.       2480.       2413.       2543.       2698.       2813.       2661.    
        2705.       2882.       2972.       2906.       2497.       2430.       2398.       2380.       2370.       2682.    
        2874.       3051.       3119.       3161.       3108.       3270.       3451.       3506.       3383.       3346.    
        3512.       3540.       3344.       3331.       3416.       3599.       3729.       3839.       3532.       3261.    
        3071.       2600.       2451.       2309.       2175.       2049.    
  48    1849.       1897.       1944.       1992.       2040.       2089.       2138.       2187.       2237.       2287.    
        2338.       2389.       2440.       2492.       2545.       2598.       2651.       2706.       2760.       2816.    
        2872.       2962.       3031.       3054.       3386.       3525.       3324.       3134.       2922.       2821.    
        2680.       2652.       2652.       2578.       2598.       2552.       2392.       2589.       2619.       2572.    
        2790.       2853.       2949.       2811.       2419.       2372.       2363.       2305.       2469.       2650.    
        2773.       2879.       2961.       2994.       3162.       3304.       3440.       3371.       3277.       3411.    
        3538.       3408.       3270.       3426.       3622.       3625.       3698.       3606.       3382.       3016.    
        2772.       2515.       2348.       2189.       2038.       1894.    
  49    1822.       1868.       1914.       1961.       2008.       2055.       2103.       2151.       2199.       2247.    
        2296.       2346.       2396.       2446.       2497.       2548.       2599.       2651.       2704.       2757.    
        2811.       2987.       3162.       3057.       3347.       3560.       3362.       3231.       3024.       2884.    
        2687.       2824.       2709.       2729.       2772.       2604.       2413.       2397.       2436.       2540.    
        2781.       2864.       2931.       2819.       2415.       2297.       2290.       2286.       2463.       2743.    
        2930.       2950.       3044.       3104.       3216.       3414.       3396.       3229.       3230.       3269.    
        3270.       3297.       3527.       3652.       3580.       3424.       3539.       3264.       3196.       2838.    
        2640.       2446.       2260.       2082.       1913.       1752.    
  50    1798.       1843.       1888.       1934.       1979.       2026.       2072.       2119.       2166.       2213.    
        2260.       2308.       2357.       2405.       2454.       2504.       2554.       2604.       2655.       2706.    
        2758.       2995.       3404.       3116.       3406.       3482.       3175.       3000.       2877.       2798.    
        2840.       2871.       2807.       2773.       2715.       2655.       2624.       2386.       2328.       2563.    
        2692.       2862.       2875.       2749.       2350.       2246.       2237.       2312.       2501.       2741.    
        2930.       3098.       3197.       3284.       3395.       3429.       3291.       3123.       3028.       3046.    
        3296.       3481.       3598.       3697.       3559.       3432.       3198.       3194.       2949.       2867.    
        2597.       2402.       2203.       2001.       1805.       1626.    
  51    1777.       1821.       1866.       1910.       1955.       2000.       2045.       2091.       2137.       2183.    
        2229.       2276.       2323.       2370.       2418.       2466.       2514.       2563.       2612.       2661.    
        2711.       2924.       3345.       3183.       3493.       3549.       3373.       3187.       3142.       2980.    
        2993.       2965.       2782.       2682.       2603.       2543.       2507.       2512.       2354.       2385.    
        2576.       2710.       2801.       2651.       2280.       2211.       2225.       2333.       2536.       2733.    
        2865.       2963.       3123.       3284.       3401.       3301.       3141.       2992.       2907.       3302.    
        3477.       3546.       3631.       3649.       3462.       3354.       3265.       3125.       2906.       2719.    
        2554.       2362.       2168.       1970.       1769.       1565.    
  52    1759.       1803.       1846.       1890.       1934.       1978.       2022.       2067.       2112.       2157.    
        2202.       2248.       2293.       2340.       2386.       2433.       2480.       2527.       2574.       2622.    
        2765.       2944.       3330.       3346.       3579.       3511.       3489.       3393.       3404.       3245.    
        3052.       2877.       2801.       2796.       2708.       2633.       2696.       2599.       2474.       2287.    
        2434.       2589.       2765.       2544.       2273.       2164.       2201.       2321.       2516.       2740.    
        2894.       3004.       3133.       3315.       3364.       3184.       2968.       2813.       3134.       3284.    
        3414.       3527.       3635.       3529.       3432.       3143.       3197.       2905.       2953.       2694.    
        2509.       2321.       2131.       1937.       1740.       1541.    
  53    1744.       1787.       1830.       1873.       1916.       1959.       2003.       2046.       2090.       2134.    
        2179.       2223.       2268.       2313.       2358.       2404.       2450.       2496.       2542.       2589.    
        2837.       2903.       3465.       3636.       3480.       3292.       3468.       3580.       3387.       3122.    
        3060.       3035.       3013.       2862.       2789.       2787.       2790.       2711.       2525.       2299.    
        2351.       2566.       2744.       2606.       2303.       2110.       2111.       2286.       2490.       2701.    
        2938.       3151.       3250.       3290.       3226.       3007.       2790.       2781.       3179.       3320.    
        3426.       3553.       3569.       3526.       3313.       3159.       2921.       2900.       2741.       2644.    
        2463.       2279.       2093.       1903.       1710.       1514.    
  54    1731.       1773.       1815.       1858.       1900.       1943.       1986.       2029.       2072.       2115.    
        2159.       2202.       2246.       2290.       2334.       2379.       2424.       2469.       2514.       2559.    
        2885.       3235.       3343.       3384.       3190.       3424.       3549.       3383.       3121.       3051.    
        2944.       3114.       3150.       3035.       2922.       2848.       2759.       2696.       2609.       2360.    
        2281.       2524.       2665.       2558.       2258.       2058.       2125.       2320.       2511.       2712.    
        3055.       3143.       3199.       3206.       3028.       2776.       2656.       2876.       3171.       3303.    
        3444.       3506.       3316.       3359.       3125.       3073.       2834.       2854.       2767.       2593.    
        2416.       2236.       2053.       1868.       1679.       1487.    
  55    1720.       1762.       1803.       1845.       1887.       1929.       1971.       2014.       2056.       2099.    
        2141.       2184.       2227.       2271.       2314.       2358.       2401.       2445.       2490.       2558.    
        2917.       3110.       3212.       3089.       3273.       3588.       3643.       3291.       2947.       2887.    
        2859.       3079.       3180.       3059.       2854.       2743.       2664.       2583.       2510.       2484.    
        2212.       2390.       2653.       2499.       2193.       2033.       2116.       2337.       2537.       2819.    
        2948.       3037.       3189.       3096.       2919.       2629.       2642.       2899.       3105.       3271.    
        3461.       3449.       3299.       3068.       2927.       2804.       2887.       2720.       2712.       2542.    
        2369.       2192.       2013.       1831.       1646.       1458.    
  56    1711.       1752.       1793.       1835.       1876.       1917.       1959.       2001.       2043.       2084.    
        2127.       2169.       2211.       2254.       2296.       2339.       2382.       2425.       2469.       2658.    
        2938.       3166.       3106.       3009.       3164.       3378.       3554.       3190.       2994.       2747.    
        2885.       3046.       3118.       3092.       2944.       2727.       2613.       2517.       2453.       2364.    
        2187.       2343.       2579.       2290.       2069.       2015.       2082.       2355.       2675.       2763.    
        2833.       2995.       3146.       3103.       2794.       2546.       2670.       2911.       3113.       3370.    
        3396.       3485.       3413.       3225.       2977.       2842.       2833.       2773.       2656.       2490.    
        2320.       2148.       1972.       1794.       1613.       1429.    
  57    1703.       1744.       1785.       1826.       1866.       1908.       1949.       1990.       2031.       2072.    
        2114.       2156.       2197.       2239.       2281.       2323.       2366.       2408.       2451.       2733.    
        2853.       2892.       2922.       3139.       3266.       3349.       3404.       3223.       2960.       2717.    
        2801.       2898.       3003.       2975.       3134.       2891.       2670.       2588.       2570.       2460.    
        2174.       2166.       2267.       2061.       2012.       2010.       2149.       2369.       2531.       2604.    
        2763.       2962.       3120.       3065.       2803.       2517.       2683.       2952.       3140.       3272.    
        3235.       3373.       3446.       3183.       2866.       2858.       2670.       2760.       2600.       2437.    
        2271.       2102.       1931.       1756.       1579.       1399.    
  58    1697.       1737.       1778.       1818.       1859.       1899.       1940.       1981.       2021.       2062.    
        2103.       2144.       2186.       2227.       2268.       2310.       2352.       2393.       2435.       2777.    
        2737.       2850.       3173.       3168.       3441.       3141.       3043.       3328.       3150.       2882.    
        2646.       2772.       2836.       2881.       3019.       2907.       2808.       2610.       2475.       2390.    
        2177.       2021.       2002.       1990.       2000.       2126.       2405.       2518.       2718.       2778.    
        2858.       2992.       3108.       3050.       2801.       2525.       2656.       2896.       3055.       3065.    
        3117.       3170.       3224.       3038.       2883.       2756.       2718.       2699.       2543.       2384.    
        2222.       2057.       1889.       1718.       1544.       1368.    
  59    1692.       1732.       1772.       1812.       1852.       1892.       1933.       1973.       2013.       2054.    
        2094.       2135.       2176.       2217.       2257.       2298.       2340.       2381.       2493.       2797.    
        2829.       3090.       3395.       3438.       3593.       3279.       2877.       3229.       3190.       2965.    
        2706.       2585.       2670.       2817.       2982.       2796.       2850.       2699.       2542.       2328.    
        2097.       1988.       1982.       1995.       2128.       2427.       2631.       2675.       2750.       2958.    
        2974.       3083.       3052.       2914.       2808.       2569.       2558.       2819.       2844.       2869.    
        2915.       2883.       2942.       2866.       2817.       2599.       2789.       2639.       2486.       2330.    
        2172.       2010.       1846.       1679.       1509.       1336.    
  60    1688.       1728.       1767.       1807.       1847.       1887.       1927.       1967.       2007.       2047.    
        2087.       2127.       2168.       2208.       2248.       2289.       2329.       2370.       2587.       2796.    
        2861.       3069.       3393.       3519.       3391.       3182.       2797.       2949.       2925.       2947.    
        2765.       2548.       2635.       2857.       2994.       2716.       2816.       2594.       2410.       2249.    
        2034.       1977.       1987.       2040.       2268.       2381.       2576.       2724.       2825.       2985.    
        3094.       3071.       3000.       2898.       2765.       2612.       2483.       2655.       2728.       2835.    
        2754.       2732.       2846.       2857.       2639.       2636.       2725.       2578.       2429.       2277.    
        2122.       1964.       1803.       1640.       1473.       1304.    
  61    1685.       1724.       1764.       1803.       1843.       1882.       1922.       1962.       2001.       2041.    
        2081.       2121.       2161.       2201.       2241.       2281.       2321.       2361.       2642.       2767.    
        3022.       3258.       3412.       3264.       3166.       2922.       2755.       2738.       2803.       2892.    
        2770.       2526.       2539.       2781.       2911.       2719.       2623.       2547.       2292.       2164.    
        1991.       1978.       2065.       2289.       2548.       2524.       2531.       2647.       2771.       2902.    
        3034.       2919.       2925.       2989.       2943.       2756.       2484.       2589.       2755.       2799.    
        2678.       2660.       2710.       2715.       2514.       2742.       2661.       2518.       2372.       2223.    
        2072.       1917.       1760.       1600.       1437.       1272.    
  62    1683.       1722.       1761.       1800.       1840.       1879.       1918.       1958.       1997.       2037.    
        2076.       2116.       2155.       2195.       2235.       2274.       2314.       2364.       2660.       2706.    
        2970.       3147.       3134.       3093.       2971.       2746.       2725.       2647.       2666.       2739.    
        2689.       2544.       2439.       2647.       2816.       2843.       2660.       2509.       2234.       2096.    
        1972.       2040.       2347.       2413.       2548.       2649.       2775.       2780.       2861.       2880.    
        2920.       2840.       2815.       2892.       2825.       2741.       2480.       2578.       2685.       2798.    
        2675.       2530.       2590.       2507.       2541.       2734.       2597.       2457.       2315.       2169.    
        2021.       1870.       1717.       1560.       1401.       1239.    
  63    1681.       1720.       1759.       1798.       1837.       1876.       1916.       1955.       1994.       2033.    
        2072.       2112.       2151.       2190.       2229.       2269.       2308.       2455.       2641.       2616.    
        2705.       2832.       2891.       3109.       2914.       2770.       2629.       2601.       2632.       2733.    
        2717.       2672.       2424.       2572.       2680.       2747.       2756.       2456.       2197.       2051.    
        1977.       2213.       2405.       2536.       2623.       2838.       2893.       2913.       2780.       2817.    
        2814.       2763.       2716.       2835.       2680.       2692.       2510.       2603.       2761.       2765.    
        2609.       2480.       2514.       2423.       2650.       2667.       2534.       2397.       2258.       2116.    
        1971.       1824.       1674.       1521.       1365.       1206.    
  64    1680.       1719.       1758.       1797.       1836.       1875.       1914.       1952.       1991.       2030.    
        2069.       2108.       2147.       2186.       2226.       2265.       2304.       2522.       2579.       2607.    
        2625.       2665.       2900.       3051.       2864.       2801.       2747.       2539.       2513.       2552.    
        2530.       2490.       2396.       2418.       2533.       2570.       2639.       2512.       2174.       2022.    
        2004.       2306.       2476.       2657.       2731.       2836.       2751.       2776.       2673.       2740.    
        2768.       2667.       2623.       2657.       2624.       2682.       2471.       2708.       2894.       2831.    
        2607.       2442.       2391.       2440.       2729.       2601.       2471.       2337.       2202.       2063.    
        1922.       1777.       1631.       1481.       1328.       1173.    
  65    1680.       1719.       1757.       1796.       1835.       1874.       1912.       1951.       1990.       2028.    
        2067.       2106.       2145.       2184.       2222.       2261.       2300.       2545.       2459.       2648.    
        2623.       2595.       2729.       2786.       2692.       2620.       2558.       2455.       2379.       2421.    
        2390.       2359.       2310.       2350.       2411.       2458.       2517.       2299.       2124.       1981.    
        2089.       2440.       2558.       2671.       2869.       2895.       2738.       2641.       2592.       2607.    
        2742.       2630.       2506.       2582.       2526.       2512.       2524.       2720.       2743.       2771.    
        2535.       2472.       2331.       2531.       2660.       2535.       2408.       2278.       2146.       2010.    
        1872.       1731.       1588.       1441.       1292.       1141.    
  66    1680.       1719.       1757.       1796.       1835.       1873.       1912.       1950.       1989.       2027.    
        2066.       2104.       2143.       2182.       2220.       2259.       2341.       2523.       2291.       2604.    
        2605.       2567.       2633.       2604.       2547.       2453.       2357.       2329.       2337.       2313.    
        2332.       2277.       2278.       2216.       2255.       2338.       2365.       2292.       2105.       1974.    
        2163.       2461.       2692.       2783.       2738.       2779.       2789.       2702.       2552.       2479.    
        2621.       2623.       2474.       2432.       2412.       2405.       2552.       2604.       2586.       2647.    
        2476.       2426.       2338.       2630.       2592.       2470.       2346.       2220.       2090.       1958.    
        1823.       1686.       1545.       1402.       1257.       1108.    
  67    1681.       1719.       1758.       1796.       1835.       1873.       1911.       1950.       1988.       2027.    
        2065.       2103.       2142.       2180.       2219.       2257.       2416.       2447.       2704.       2570.    
        2572.       2536.       2567.       2671.       2618.       2443.       2321.       2264.       2288.       2326.    
        2270.       2251.       2297.       2283.       2178.       2161.       2156.       2174.       2091.       1972.    
        2151.       2578.       2700.       2676.       2621.       2641.       2640.       2561.       2512.       2402.    
        2441.       2374.       2347.       2343.       2382.       2435.       2408.       2433.       2459.       2461.    
        2402.       2260.       2410.       2640.       2525.       2406.       2286.       2162.       2036.       1907.    
        1775.       1641.       1504.       1364.       1221.       1076.    
  68    1682.       1720.       1759.       1797.       1835.       1874.       1912.       1950.       1988.       2027.    
        2065.       2103.       2141.       2180.       2218.       2256.       2449.       2305.       2764.       2572.    
        2549.       2516.       2564.       2710.       2645.       2534.       2336.       2234.       2256.       2447.    
        2260.       2228.       2343.       2265.       2209.       2096.       2251.       2405.       2237.       1970.    
        2130.       2521.       2548.       2544.       2503.       2489.       2457.       2389.       2342.       2312.    
        2296.       2332.       2342.       2442.       2533.       2598.       2479.       2328.       2347.       2411.    
        2350.       2246.       2528.       2571.       2459.       2343.       2226.       2105.       1982.       1856.    
        1727.       1596.       1462.       1326.       1187.       1045.    
  69    1684.       1722.       1760.       1798.       1836.       1874.       1913.       1951.       1989.       2027.    
        2065.       2103.       2141.       2179.       2218.       2259.       2432.       2123.       2475.       2538.    
        2622.       2505.       2531.       2631.       2618.       2568.       2477.       2326.       2220.       2380.    
        2323.       2249.       2501.       2245.       2170.       2099.       2241.       2314.       2199.       1965.    
        2084.       2367.       2374.       2382.       2368.       2341.       2288.       2253.       2250.       2252.    
        2299.       2420.       2444.       2459.       2392.       2384.       2486.       2374.       2235.       2300.    
        2358.       2295.       2611.       2504.       2394.       2282.       2167.       2049.       1929.       1806.    
        1681.       1553.       1422.       1289.       1153.       1014.    
  70    1685.       1723.       1762.       1800.       1838.       1876.       1914.       1952.       1990.       2028.    
        2066.       2104.       2142.       2180.       2218.       2323.       2358.       2757.       2485.       2503.    
        2601.       2572.       2474.       2505.       2495.       2454.       2435.       2395.       2283.       2213.    
        2249.       2235.       2446.       2250.       2146.       2080.       2096.       2077.       1976.       1967.    
        2043.       2196.       2218.       2253.       2256.       2234.       2223.       2320.       2419.       2412.    
        2481.       2573.       2555.       2528.       2464.       2371.       2311.       2347.       2264.       2292.    
        2193.       2395.       2541.       2437.       2330.       2221.       2109.       1994.       1877.       1758.    
        1635.       1510.       1383.       1252.       1119.       983.7    
  71    1687.       1725.       1763.       1801.       1839.       1877.       1915.       1953.       1991.       2029.    
        2067.       2105.       2143.       2181.       2218.       2366.       2217.       2854.       2493.       2469.    
        2484.       2487.       2440.       2462.       2390.       2381.       2350.       2320.       2291.       2285.    
        2200.       2202.       2384.       2278.       2169.       2065.       2007.       1982.       1989.       2026.    
        2097.       2195.       2230.       2260.       2197.       2216.       2355.       2419.       2433.       2432.    
        2408.       2452.       2418.       2378.       2344.       2350.       2369.       2240.       2252.       2295.    
        2198.       2474.       2473.       2372.       2268.       2162.       2053.       1941.       1827.       1710.    
        1591.       1469.       1344.       1217.       1087.       954.4    
  72    1690.       1728.       1766.       1803.       1841.       1879.       1917.       1955.       1993.       2031.    
        2068.       2106.       2144.       2182.       2220.       2359.       2038.       2379.       2461.       2439.    
        2419.       2432.       2418.       2447.       2404.       2314.       2308.       2258.       2232.       2184.    
        2181.       2136.       2257.       2217.       2116.       2041.       1981.       2011.       2068.       2115.    
        2256.       2277.       2215.       2183.       2211.       2284.       2323.       2327.       2313.       2316.    
        2354.       2394.       2398.       2385.       2354.       2336.       2335.       2172.       2255.       2209.    
        2268.       2503.       2407.       2309.       2207.       2104.       1998.       1889.       1778.       1664.    
        1547.       1428.       1307.       1182.       1056.       926.2    
  73    1692.       1730.       1768.       1806.       1844.       1881.       1919.       1957.       1995.       2033.    
        2070.       2108.       2146.       2183.       2244.       2295.       2756.       2422.       2425.       2414.    
        2400.       2402.       2395.       2430.       2393.       2308.       2252.       2224.       2189.       2261.    
        2251.       2099.       2133.       2106.       2056.       1998.       2002.       2062.       2128.       2214.    
        2257.       2315.       2229.       2149.       2253.       2346.       2358.       2301.       2267.       2293.    
        2317.       2342.       2336.       2352.       2362.       2421.       2298.       2204.       2256.       2149.    
        2373.       2436.       2343.       2247.       2149.       2048.       1944.       1838.       1730.       1619.    
        1505.       1389.       1271.       1149.       1025.       899.0    
  74    1695.       1733.       1770.       1808.       1846.       1884.       1922.       1959.       1997.       2035.    
        2072.       2110.       2148.       2185.       2292.       2166.       2920.       2414.       2392.       2383.    
        2372.       2375.       2376.       2407.       2377.       2294.       2246.       2218.       2209.       2266.    
        2264.       2216.       2087.       2087.       2053.       1977.       2005.       2116.       2155.       2258.    
        2308.       2261.       2200.       2141.       2230.       2256.       2257.       2226.       2233.       2250.    
        2263.       2286.       2306.       2318.       2307.       2375.       2224.       2243.       2180.       2165.    
        2459.       2371.       2280.       2187.       2091.       1993.       1893.       1790.       1684.       1576.    
        1465.       1352.       1236.       1118.       996.6       873.1    
  75    1698.       1735.       1773.       1811.       1849.       1886.       1924.       1962.       1999.       2037.    
        2075.       2112.       2150.       2187.       2297.       1996.       2309.       2386.       2363.       2348.    
        2347.       2341.       2363.       2383.       2359.       2275.       2240.       2219.       2233.       2250.    
        2230.       2160.       2243.       2270.       2205.       2069.       2022.       2089.       2156.       2279.    
        2225.       2175.       2168.       2135.       2143.       2190.       2190.       2171.       2199.       2208.    
        2235.       2245.       2263.       2306.       2290.       2340.       2176.       2227.       2118.       2245.    
        2393.       2307.       2219.       2129.       2036.       1941.       1843.       1742.       1640.       1534.    
        1426.       1316.       1203.       1087.       969.2       848.5    
  76    1701.       1738.       1776.       1814.       1852.       1889.       1927.       1964.       2002.       2040.    
        2077.       2115.       2152.       2190.       2246.       2697.       2372.       2352.       2340.       2323.    
        2308.       2324.       2353.       2360.       2320.       2249.       2212.       2206.       2213.       2198.    
        2168.       2202.       2208.       2159.       2102.       2021.       2008.       2105.       2207.       2208.    
        2149.       2142.       2154.       2136.       2102.       2128.       2132.       2148.       2181.       2203.    
        2208.       2253.       2234.       2254.       2274.       2285.       2138.       2216.       2114.       2331.    
        2329.       2246.       2161.       2073.       1983.       1890.       1795.       1697.       1597.       1494.    
        1389.       1281.       1171.       1059.       943.3       825.5    
  77    1704.       1741.       1779.       1817.       1855.       1892.       1930.       1967.       2005.       2042.    
        2080.       2117.       2155.       2227.       2133.       2963.       2332.       2319.       2307.       2301.    
        2301.       2318.       2329.       2337.       2275.       2226.       2196.       2178.       2166.       2159.    
        2155.       2144.       2101.       2116.       2110.       2016.       1965.       2081.       2134.       2127.    
        2094.       2102.       2134.       2123.       2089.       2084.       2103.       2118.       2143.       2187.    
        2180.       2239.       2182.       2198.       2239.       2248.       2181.       2109.       2137.       2346.    
        2268.       2188.       2105.       2020.       1932.       1842.       1749.       1654.       1556.       1456.    
        1354.       1249.       1141.       1032.       919.0       804.0    
  78    1707.       1745.       1782.       1820.       1858.       1895.       1933.       1970.       2008.       2045.    
        2083.       2120.       2157.       2242.       1976.       2262.       2312.       2292.       2273.       2281.    
        2290.       2297.       2304.       2310.       2248.       2200.       2169.       2146.       2115.       2095.    
        2072.       2050.       2037.       2131.       2241.       2110.       1968.       2049.       2083.       2069.    
        2055.       2087.       2117.       2103.       2091.       2060.       2075.       2096.       2107.       2166.    
        2168.       2177.       2187.       2242.       2214.       2212.       2181.       2110.       2213.       2285.    
        2209.       2131.       2051.       1968.       1883.       1795.       1705.       1613.       1518.       1421.    
        1321.       1218.       1114.       1006.       896.6       784.3    
  79    1710.       1748.       1786.       1823.       1861.       1898.       1936.       1973.       2011.       2048.    
        2086.       2123.       2160.       2205.       2583.       2332.       2280.       2270.       2251.       2263.    
        2268.       2274.       2279.       2272.       2201.       2179.       2175.       2185.       2158.       2119.    
        2091.       2062.       2031.       2065.       2145.       2141.       1965.       2015.       2042.       2033.    
        2041.       2076.       2093.       2087.       2084.       2058.       2048.       2073.       2108.       2155.    
        2150.       2123.       2159.       2220.       2183.       2175.       2131.       2083.       2297.       2226.    
        2153.       2078.       2000.       1919.       1837.       1751.       1664.       1574.       1482.       1387.    
        1290.       1190.       1088.       983.1       876.0       766.4    
  80    1714.       1752.       1789.       1827.       1864.       1902.       1939.       1977.       2014.       2051.    
        2089.       2126.       2173.       2110.       2984.       2254.       2249.       2237.       2231.       2245.    
        2249.       2253.       2255.       2249.       2224.       2230.       2256.       2327.       2354.       2298.    
        2277.       2221.       2173.       2167.       2058.       2051.       2015.       1957.       2030.       2071.    
        2066.       2066.       2078.       2075.       2070.       2050.       2025.       2049.       2100.       2126.    
        2147.       2121.       2129.       2185.       2144.       2138.       2086.       2111.       2239.       2171.    
        2100.       2027.       1951.       1873.       1793.       1710.       1625.       1537.       1448.       1355.    
        1261.       1163.       1064.       961.9       857.4       750.5    
  81    1717.       1755.       1793.       1830.       1868.       1905.       1943.       1980.       2017.       2055.    
        2092.       2129.       2193.       1967.       2233.       2239.       2223.       2203.       2215.       2220.    
        2237.       2226.       2233.       2232.       2280.       2334.       2336.       2312.       2348.       2298.    
        2284.       2198.       2170.       2108.       2021.       2013.       1996.       1928.       2020.       2064.    
        2071.       2070.       2064.       2056.       2048.       2048.       2013.       2045.       2085.       2092.    
        2130.       2132.       2133.       2110.       2108.       2102.       2102.       2198.       2184.       2118.    
        2049.       1978.       1905.       1829.       1752.       1671.       1589.       1504.       1416.       1326.    
        1234.       1139.       1042.       942.9       841.1       736.7    
  82    1721.       1759.       1796.       1834.       1871.       1909.       1946.       1983.       2021.       2058.    
        2095.       2133.       2169.       2427.       2299.       2209.       2204.       2185.       2199.       2204.    
        2221.       2204.       2219.       2256.       2355.       2412.       2285.       2231.       2222.       2180.    
        2149.       2120.       2098.       2050.       1983.       1994.       1944.       1918.       2001.       2061.    
        2055.       2047.       2052.       2046.       2040.       2039.       2010.       2035.       2065.       2079.    
        2109.       2121.       2148.       2111.       2087.       2073.       2055.       2194.       2132.       2068.    
        2002.       1933.       1862.       1789.       1713.       1635.       1555.       1472.       1387.       1300.    
        1210.       1118.       1023.       926.3       826.9       725.1    
  83    1725.       1762.       1800.       1837.       1875.       1912.       1950.       1987.       2024.       2062.    
        2099.       2136.       2090.       2983.       2212.       2180.       2170.       2167.       2184.       2214.    
        2205.       2197.       2235.       2311.       2414.       2319.       2221.       2170.       2128.       2113.    
        2067.       2041.       2012.       2010.       1954.       1913.       1935.       1994.       2016.       2053.    
        2038.       2034.       2037.       2038.       2037.       2024.       2004.       2035.       2048.       2069.    
        2081.       2098.       2104.       2084.       2080.       2087.       2080.       2143.       2083.       2021.    
        1957.       1891.       1822.       1751.       1678.       1602.       1524.       1444.       1361.       1276.    
        1188.       1099.       1007.       912.1       815.2       715.9    
  84    1728.       1766.       1803.       1841.       1878.       1916.       1953.       1991.       2028.       2065.    
        2102.       2150.       1963.       2220.       2182.       2155.       2137.       2152.       2149.       2201.    
        2189.       2197.       2249.       2391.       2426.       2296.       2220.       2160.       2114.       2078.    
        2037.       2016.       2010.       1966.       1912.       1952.       1990.       1991.       2023.       2033.    
        2026.       2020.       2021.       2019.       2022.       2010.       2005.       2033.       2042.       2049.    
        2060.       2078.       2072.       2064.       2053.       2079.       2150.       2095.       2038.       1978.    
        1916.       1852.       1785.       1716.       1645.       1572.       1496.       1418.       1337.       1255.    
        1170.       1082.       992.6       900.5       806.0       709.2    
  85    1732.       1770.       1807.       1845.       1882.       1919.       1957.       1994.       2031.       2069.    
        2106.       2137.       2245.       2273.       2139.       2139.       2122.       2139.       2162.       2174.    
        2172.       2202.       2241.       2412.       2456.       2312.       2190.       2158.       2096.       2055.    
        2019.       1982.       1971.       1931.       1898.       1961.       1981.       1991.       2024.       2021.    
        2015.       2010.       2013.       2016.       2010.       1993.       1997.       2019.       2015.       2023.    
        2039.       2047.       2034.       2037.       2045.       2028.       2104.       2051.       1995.       1938.    
        1878.       1816.       1751.       1685.       1616.       1544.       1471.       1395.       1317.       1237.    
        1154.       1069.       981.3       891.6       799.5       705.0    
  86    1736.       1773.       1811.       1848.       1886.       1923.       1961.       1998.       2035.       2072.    
        2110.       2073.       2962.       2182.       2111.       2105.       2107.       2108.       2186.       2158.    
        2159.       2159.       2284.       2385.       2414.       2279.       2146.       2163.       2111.       2065.    
        2042.       2019.       1981.       1922.       1884.       1970.       1980.       2010.       2013.       2012.    
        2011.       2021.       2010.       2019.       2015.       1990.       2005.       1999.       1990.       2000.    
        2014.       2024.       2016.       2014.       2024.       2087.       2062.       2010.       1957.       1901.    
        1843.       1783.       1721.       1656.       1590.       1520.       1449.       1375.       1300.       1221.    
        1141.       1058.       972.9       885.5       795.7       703.6    
  87    1740.       1777.       1815.       1852.       1890.       1927.       1964.       2002.       2039.       2076.    
        2115.       1962.       2219.       2144.       2089.       2073.       2093.       2117.       2156.       2140.    
        2163.       2220.       2229.       2311.       2351.       2182.       2066.       2065.       2083.       2048.    
        1999.       1970.       1969.       1903.       1884.       1969.       1973.       2007.       2018.       2021.    
        2022.       2012.       2012.       2013.       2008.       1983.       2004.       1998.       1979.       1987.    
        2000.       2002.       2003.       2003.       2013.       2070.       2023.       1974.       1922.       1868.    
        1812.       1754.       1694.       1632.       1567.       1500.       1431.       1359.       1285.       1209.    
        1131.       1050.       967.5       882.3       794.8       705.0    
  88    1743.       1781.       1818.       1856.       1893.       1931.       1968.       2005.       2043.       2080.    
        2107.       2060.       2250.       2073.       2076.       2061.       2080.       2129.       2110.       2124.    
        2151.       2165.       2189.       2185.       2265.       2211.       2075.       2018.       1997.       1974.    
        1995.       1967.       1918.       1871.       1885.       1961.       1970.       2016.       2022.       2021.    
        2025.       1995.       2017.       2006.       1970.       1987.       2001.       1981.       1982.       1990.    
        2005.       1994.       1995.       2004.       2002.       2033.       1988.       1941.       1891.       1839.    
        1785.       1729.       1671.       1610.       1548.       1483.       1415.       1346.       1274.       1200.    
        1124.       1046.       965.2       882.2       796.9       709.3    
  89    1747.       1785.       1822.       1860.       1897.       1934.       1972.       2009.       2046.       2084.    
        2057.       2922.       2158.       2045.       2042.       2049.       2041.       2158.       2092.       2114.    
        2139.       2153.       2154.       2122.       2237.       2191.       2068.       2034.       2000.       1959.    
        1935.       1917.       1905.       1860.       1892.       1956.       1985.       2009.       1994.       1983.    
        1989.       1971.       1990.       1967.       1968.       1994.       1982.       2002.       2004.       2001.    
        1992.       1985.       1991.       2001.       2042.       2001.       1957.       1912.       1864.       1814.    
        1762.       1708.       1651.       1593.       1532.       1469.       1404.       1337.       1267.       1195.    
        1121.       1045.       966.1       885.3       802.2       716.8    
  90    1751.       1788.       1826.       1863.       1901.       1938.       1975.       2013.       2050.       2087.    
        1960.       2227.       2095.       2025.       2013.       2037.       2081.       2105.       2079.       2118.    
        2130.       2141.       2106.       2085.       2142.       2218.       2174.       2060.       2014.       1981.    
        1960.       1912.       1868.       1865.       1896.       1948.       1968.       1948.       1918.       1922.    
        1935.       1946.       1944.       1952.       1971.       1975.       1986.       2007.       2007.       2000.    
        1991.       1981.       1981.       1986.       2012.       1973.       1931.       1887.       1841.       1793.    
        1743.       1690.       1636.       1579.       1520.       1459.       1396.       1331.       1263.       1193.    
        1121.       1047.       970.4       891.7       810.7       727.5    
  91    1754.       1792.       1830.       1867.       1904.       1942.       1979.       2016.       2054.       2082.    
        1913.       2229.       2025.       2016.       2004.       2003.       2125.       2048.       2068.       2106.    
        2122.       2115.       2063.       2046.       2136.       2264.       2243.       2065.       1989.       1963.    
        1941.       1919.       1859.       1862.       1902.       1945.       1931.       1906.       1963.       1977.    
        1974.       1952.       1971.       1950.       1978.       2003.       2005.       2003.       2003.       1991.    
        1986.       1979.       1975.       2016.       1986.       1949.       1908.       1866.       1822.       1776.    
        1727.       1677.       1624.       1569.       1512.       1453.       1392.       1328.       1263.       1195.    
        1125.       1053.       978.2       901.5       822.6       741.5    
  92    1758.       1796.       1833.       1871.       1908.       1946.       1983.       2020.       2057.       2042.    
        2865.       2138.       1982.       1982.       1995.       2047.       2113.       2011.       2077.       2096.    
        2117.       2055.       2035.       2023.       2163.       2231.       2110.       2034.       1965.       1942.    
        1915.       1897.       1861.       1860.       1919.       1934.       1897.       1965.       1986.       2015.    
        2014.       1992.       2005.       2000.       1996.       2009.       2025.       2020.       2015.       2005.    
        2000.       1980.       1976.       2000.       1965.       1929.       1891.       1850.       1808.       1763.    
        1716.       1668.       1617.       1564.       1508.       1451.       1392.       1330.       1266.       1200.    
        1132.       1062.       989.6       914.9       838.0       758.9    
  93    1762.       1799.       1837.       1874.       1912.       1949.       1986.       2024.       2061.       1958.    
        2237.       2031.       1963.       1955.       1982.       2018.       2051.       2008.       2067.       2090.    
        2105.       2013.       2007.       2000.       2117.       2217.       2108.       2043.       1997.       1975.    
        1914.       1885.       1882.       1853.       1909.       1904.       1925.       2026.       2026.       2041.    
        2040.       2019.       2015.       2023.       2019.       2010.       2016.       2034.       2035.       2022.    
        2004.       1983.       1992.       1981.       1949.       1914.       1877.       1838.       1798.       1755.    
        1710.       1663.       1613.       1562.       1509.       1453.       1396.       1336.       1274.       1210.    
        1144.       1075.       1005.       932.0       857.1       780.0    
  94    1765.       1803.       1840.       1878.       1915.       1953.       1990.       2027.       2062.       1879.    
        2207.       2000.       1958.       1950.       1953.       2112.       1989.       2008.       2060.       2073.    
        2024.       1986.       1985.       1979.       2032.       2186.       2115.       2059.       2075.       2040.    
        1948.       1929.       1904.       1846.       1902.       1884.       1897.       1939.       1987.       2022.    
        2033.       2044.       2035.       2036.       2037.       2031.       2024.       2036.       2050.       2041.    
        2005.       1988.       1997.       1968.       1937.       1904.       1869.       1831.       1792.       1751.    
        1707.       1662.       1614.       1565.       1513.       1459.       1404.       1346.       1285.       1223.    
        1159.       1092.       1024.       952.9       879.9       804.8    
  95    1768.       1806.       1844.       1881.       1919.       1956.       1994.       2031.       2029.       2790.    
        2120.       1926.       1925.       1943.       2001.       2063.       1941.       2022.       2056.       2087.    
        1972.       1973.       1963.       1968.       2006.       2144.       2221.       2113.       2024.       2044.    
        1978.       1926.       1879.       1840.       1906.       1871.       1925.       1968.       1993.       2005.    
        2016.       2033.       2063.       2067.       2073.       2059.       2041.       2046.       2041.       2018.    
        2006.       2005.       1988.       1960.       1930.       1898.       1865.       1829.       1791.       1752.    
        1710.       1666.       1620.       1572.       1522.       1470.       1416.       1360.       1301.       1241.    
        1178.       1114.       1047.       977.7       906.6       833.3    
  96    1771.       1809.       1847.       1884.       1922.       1959.       1997.       2034.       1955.       2225.    
        2016.       1906.       1902.       1909.       2058.       1998.       1931.       2019.       2054.       2060.    
        1923.       1960.       1955.       1961.       2005.       2162.       2151.       2048.       1997.       1992.    
        1998.       1925.       1858.       1848.       1870.       1940.       1956.       1989.       1981.       2018.    
        2051.       2064.       2157.       2161.       2199.       2131.       2128.       2103.       2045.       2021.    
        2024.       2007.       1983.       1957.       1928.       1898.       1866.       1832.       1795.       1757.    
        1717.       1675.       1630.       1584.       1536.       1485.       1433.       1378.       1321.       1263.    
        1202.       1139.       1074.       1007.       937.3       865.9    
  97    1774.       1812.       1850.       1887.       1925.       1963.       2000.       2038.       1874.       2184.    
        1990.       1906.       1900.       1964.       2067.       1937.       1959.       2020.       2038.       1991.    
        1921.       1948.       1937.       1957.       2021.       2174.       2152.       2057.       1987.       1971.    
        1937.       1937.       1862.       1836.       1859.       1965.       1994.       2017.       2008.       2069.    
        2174.       2197.       2237.       2229.       2223.       2216.       2230.       2209.       2074.       2016.    
        2017.       2001.       1982.       1957.       1932.       1903.       1872.       1839.       1804.       1767.    
        1729.       1688.       1645.       1600.       1554.       1505.       1454.       1401.       1346.       1289.    
        1230.       1168.       1105.       1040.       972.2       902.5    
  98    1777.       1815.       1853.       1890.       1928.       1966.       2003.       2018.       2700.       2102.    
        1892.       1873.       1893.       1884.       2011.       1888.       1970.       2022.       2068.       1945.    
        1934.       1936.       1928.       1957.       2020.       2187.       2158.       2086.       1974.       1980.    
        1937.       1900.       1864.       1833.       1931.       1963.       2009.       2035.       2048.       2162.    
        2236.       2220.       2189.       2196.       2213.       2195.       2181.       2210.       2095.       2019.    
        2000.       1991.       1978.       1959.       1936.       1907.       1883.       1852.       1818.       1783.    
        1746.       1706.       1665.       1622.       1576.       1529.       1480.       1428.       1375.       1319.    
        1262.       1202.       1141.       1077.       1011.       943.4    
  99    1780.       1818.       1855.       1893.       1931.       1968.       2006.       1952.       2200.       2004.    
        1856.       1853.       1900.       2058.       1949.       1860.       1979.       1988.       2003.       1918.    
        1939.       1918.       1938.       1971.       2033.       2085.       2112.       2002.       1970.       1964.    
        1966.       1907.       1861.       1862.       1951.       1980.       1996.       2036.       2109.       2123.    
        2199.       2211.       2169.       2164.       2195.       2194.       2157.       2215.       2177.       2054.    
        1984.       1977.       1970.       1957.       1939.       1917.       1889.       1857.       1835.       1803.    
        1768.       1730.       1690.       1648.       1604.       1558.       1510.       1461.       1409.       1355.    
        1299.       1241.       1181.       1119.       1055.       988.5    
 100    1782.       1820.       1858.       1896.       1933.       1971.       2009.       1870.       2157.       1989.    
        1857.       1854.       1923.       2017.       1894.       1900.       1988.       2030.       1972.       1918.    
        1939.       1936.       1956.       1994.       2012.       1990.       1996.       2002.       1982.       1942.    
        1997.       1992.       1872.       1913.       2007.       1991.       2004.       2090.       2050.       2050.    
        2156.       2181.       2168.       2128.       2168.       2172.       2159.       2208.       2227.       1976.    
        1968.       1961.       1953.       1946.       1940.       1923.       1901.       1875.       1843.       1807.    
        1784.       1758.       1720.       1679.       1637.       1592.       1546.       1498.       1447.       1395.    
        1341.       1284.       1226.       1165.       1103.       1038.    
 101    1784.       1822.       1860.       1898.       1936.       1973.       2007.       2595.       2081.       1884.    
        1827.       1828.       1989.       1962.       1851.       1926.       1976.       2022.       1952.       1935.    
        1937.       1960.       1974.       2000.       2044.       1994.       1957.       1982.       1958.       1972.    
        2014.       1999.       1858.       1953.       2027.       1995.       1991.       2036.       2020.       2108.    
        2161.       2177.       2155.       2117.       2160.       2128.       2170.       2253.       2129.       1962.    
        1954.       1946.       1938.       1930.       1923.       1916.       1910.       1889.       1863.       1833.    
        1797.       1756.       1731.       1713.       1675.       1632.       1587.       1540.       1491.       1440.    
        1387.       1332.       1275.       1216.       1155.       1092.    
 102    1785.       1823.       1862.       1900.       1938.       1975.       1948.       2167.       1993.       1818.    
        1811.       1884.       2012.       1908.       1835.       1947.       1966.       1992.       1954.       1968.    
        1964.       1965.       1990.       2006.       1993.       2008.       1984.       1940.       1935.       1955.    
        1993.       1968.       1878.       1953.       2005.       1978.       1988.       1973.       2033.       2056.    
        2159.       2164.       2176.       2126.       2097.       2101.       2209.       2249.       1958.       1949.    
        1941.       1932.       1924.       1916.       1908.       1900.       1893.       1886.       1880.       1855.    
        1825.       1791.       1751.       1706.       1678.       1665.       1632.       1587.       1539.       1490.    
        1438.       1385.       1330.       1272.       1213.       1151.    
 103    1786.       1825.       1863.       1901.       1939.       1977.       1866.       2125.       1960.       1816.    
        1813.       1818.       1967.       1863.       1840.       1957.       2029.       1980.       2005.       2006.    
        1996.       1993.       2000.       1972.       1964.       1992.       1980.       1954.       1903.       1926.    
        1984.       2039.       1899.       1889.       1964.       1932.       1966.       1974.       1987.       2069.    
        2156.       2139.       2156.       2177.       2064.       2139.       2252.       2063.       1947.       1937.    
        1928.       1919.       1910.       1902.       1893.       1885.       1878.       1870.       1863.       1856.    
        1850.       1821.       1787.       1748.       1705.       1656.       1625.       1613.       1591.       1545.    
        1495.       1443.       1389.       1333.       1275.       1215.    
 104    1787.       1825.       1864.       1902.       1940.       1978.       2477.       2056.       1892.       1790.    
        1866.       1993.       1918.       1833.       1892.       1913.       2002.       2011.       2008.       2019.    
        2033.       2030.       2001.       1951.       1943.       1979.       1951.       2009.       1936.       1914.    
        2024.       2056.       1894.       1847.       1896.       1963.       2059.       2069.       2077.       2096.    
        2142.       2115.       2097.       2108.       2086.       2197.       2201.       1945.       1935.       1926.    
        1916.       1907.       1897.       1888.       1880.       1871.       1863.       1855.       1847.       1840.    
        1833.       1826.       1820.       1787.       1749.       1706.       1659.       1606.       1572.       1561.    
        1546.       1506.       1453.       1399.       1342.       1284.    
 105    1787.       1826.       1864.       1903.       1941.       1945.       2126.       1979.       1808.       1778.    
        1850.       1960.       1877.       1827.       1922.       1973.       1999.       1983.       1984.       2013.    
        2053.       2097.       2011.       1955.       1926.       1930.       1901.       1950.       1930.       1901.    
        2030.       2010.       1851.       1855.       2006.       2045.       2091.       2100.       2056.       2078.    
        2108.       2124.       2119.       2091.       2142.       2176.       1960.       1935.       1925.       1915.    
        1905.       1895.       1885.       1876.       1867.       1858.       1849.       1841.       1833.       1825.    
        1817.       1810.       1803.       1796.       1790.       1753.       1711.       1664.       1612.       1555.    
        1518.       1507.       1497.       1469.       1415.       1358.    
 106    1786.       1825.       1864.       1902.       1941.       1862.       2084.       1904.       1787.       1764.    
        1924.       1919.       1848.       1821.       1895.       2000.       1977.       1962.       1984.       2013.    
        2032.       2069.       1984.       1951.       1923.       1898.       1886.       1877.       1904.       1873.    
        1964.       1906.       1810.       1891.       2011.       2055.       2084.       2071.       2038.       2087.    
        2104.       2106.       2132.       2110.       2105.       2144.       1935.       1925.       1914.       1904.    
        1894.       1884.       1874.       1864.       1855.       1846.       1836.       1828.       1819.       1811.    
        1802.       1794.       1787.       1780.       1773.       1767.       1759.       1718.       1673.       1622.    
        1566.       1505.       1464.       1452.       1446.       1427.    
 107    1785.       1824.       1863.       1902.       1940.       2346.       2024.       1911.       1766.       1803.    
        1943.       1883.       1841.       1870.       1924.       1975.       1962.       1946.       1971.       1986.    
        1998.       1987.       1979.       1949.       1942.       1937.       1913.       1869.       1843.       1861.    
        1908.       1837.       1795.       1947.       2061.       2088.       2054.       2007.       2029.       2092.    
        2108.       2084.       2100.       2077.       2101.       2014.       1926.       1915.       1904.       1894.    
        1883.       1873.       1863.       1853.       1843.       1834.       1824.       1815.       1806.       1797.    
        1789.       1780.       1772.       1764.       1757.       1749.       1743.       1739.       1729.       1684.    
        1634.       1580.       1520.       1455.       1411.       1397.    
 108    1783.       1822.       1861.       1900.       1935.       2072.       1961.       1826.       1756.       1805.    
        1908.       1859.       1841.       1880.       1951.       1951.       1935.       1950.       1976.       1994.    
        1938.       1917.       1919.       1947.       1950.       1917.       1889.       1862.       1835.       1849.    
        1872.       1804.       1826.       2049.       2080.       2064.       2016.       1998.       2037.       2065.    
        2095.       2086.       2066.       2056.       2085.       1927.       1916.       1905.       1895.       1884.    
        1874.       1863.       1853.       1843.       1832.       1823.       1813.       1803.       1794.       1785.    
        1776.       1767.       1758.       1750.       1742.       1734.       1727.       1719.       1713.       1711.    
        1699.       1650.       1596.       1538.       1474.       1405.    
 109    1779.       1819.       1858.       1898.       1855.       2032.       1901.       1780.       1788.       1914.    
        1878.       1849.       1849.       1866.       1917.       1928.       1920.       1938.       1958.       1972.    
        1912.       1880.       1873.       1884.       1918.       1901.       1875.       1851.       1832.       1826.    
        1837.       1786.       1869.       2067.       2046.       1988.       1959.       1983.       2010.       2058.    
        2083.       2061.       2054.       2047.       1944.       1918.       1907.       1896.       1885.       1875.    
        1864.       1853.       1843.       1832.       1822.       1812.       1802.       1792.       1782.       1773.    
        1763.       1754.       1745.       1736.       1728.       1720.       1712.       1704.       1696.       1689.    
        1683.       1684.       1669.       1616.       1558.       1495.    
 110    1775.       1815.       1855.       1894.       2204.       1982.       1932.       1760.       1780.       1887.    
        1860.       1861.       1868.       1885.       1903.       1906.       1923.       1956.       1974.       1950.    
        1920.       1886.       1852.       1837.       1887.       1909.       1885.       1857.       1839.       1806.    
        1813.       1776.       1865.       1925.       1909.       1919.       1991.       2019.       2049.       2071.    
        2066.       2029.       2013.       2026.       1921.       1910.       1899.       1888.       1876.       1866.    
        1855.       1844.       1833.       1823.       1812.       1802.       1791.       1781.       1771.       1761.    
        1752.       1742.       1733.       1724.       1715.       1706.       1697.       1689.       1681.       1674.    
        1666.       1659.       1653.       1656.       1639.       1582.    
 111    1769.       1809.       1849.       1889.       2003.       1933.       1859.       1743.       1851.       1862.    
        1856.       1879.       1884.       1884.       1892.       1917.       1943.       1951.       1945.       1884.    
        1892.       1864.       1857.       1821.       1853.       1880.       1835.       1800.       1808.       1773.    
        1769.       1778.       1822.       1866.       2003.       2027.       2073.       2072.       2047.       2046.    
        2048.       2043.       2009.       1924.       1913.       1901.       1890.       1879.       1868.       1857.    
        1846.       1835.       1824.       1813.       1802.       1792.       1781.       1771.       1761.       1751.    
        1741.       1731.       1721.       1712.       1702.       1693.       1684.       1676.       1667.       1659.    
        1651.       1643.       1636.       1629.       1623.       1629.    
 112    1762.       1802.       1843.       1844.       1966.       1890.       1809.       1740.       1853.       1850.    
        1846.       1868.       1875.       1882.       1910.       1913.       1906.       1896.       1916.       1867.    
        1874.       1866.       1835.       1806.       1808.       1852.       1810.       1781.       1757.       1766.    
        1791.       1808.       1820.       1887.       2006.       2057.       2040.       2067.       2031.       2029.    
        2011.       2028.       1995.       1916.       1905.       1893.       1882.       1871.       1859.       1848.    
        1837.       1826.       1815.       1804.       1793.       1782.       1772.       1761.       1751.       1740.    
        1730.       1720.       1710.       1700.       1690.       1681.       1672.       1663.       1654.       1645.    
        1637.       1629.       1621.       1613.       1606.       1599.    
 113    1753.       1794.       1835.       2051.       1926.       1947.       1779.       1794.       1834.       1825.    
        1856.       1853.       1870.       1898.       1902.       1883.       1888.       1878.       1886.       1848.    
        1854.       1832.       1861.       1823.       1783.       1811.       1792.       1753.       1753.       1799.    
        1848.       1882.       1868.       1905.       1960.       1963.       2015.       2040.       2040.       2009.    
        1989.       2010.       1920.       1908.       1897.       1885.       1874.       1862.       1851.       1840.    
        1828.       1817.       1806.       1795.       1784.       1773.       1762.       1751.       1741.       1730.    
        1720.       1709.       1699.       1689.       1679.       1670.       1660.       1651.       1641.       1632.    
        1623.       1615.       1606.       1598.       1591.       1583.    
 114    1742.       1784.       1825.       1916.       1891.       1893.       1755.       1804.       1825.       1838.    
        1845.       1857.       1894.       1900.       1880.       1849.       1854.       1851.       1876.       1847.    
        1852.       1820.       1838.       1811.       1771.       1770.       1758.       1744.       1793.       1836.    
        1842.       1851.       1873.       1887.       1917.       1975.       1994.       2030.       2029.       2016.    
        2014.       2005.       1912.       1901.       1889.       1877.       1866.       1854.       1843.       1831.    
        1820.       1809.       1797.       1786.       1775.       1764.       1753.       1742.       1731.       1721.    
        1710.       1699.       1689.       1679.       1669.       1659.       1649.       1639.       1629.       1620.    
        1611.       1602.       1593.       1584.       1576.       1568.    
 115    1728.       1771.       1811.       1882.       1864.       1860.       1770.       1789.       1819.       1829.    
        1840.       1875.       1883.       1867.       1866.       1850.       1825.       1829.       1856.       1839.    
        1815.       1794.       1785.       1785.       1754.       1731.       1742.       1785.       1819.       1848.    
        1865.       1875.       1894.       1910.       1920.       1997.       2017.       2041.       2034.       2019.    
        2003.       1917.       1905.       1893.       1881.       1870.       1858.       1846.       1835.       1823.    
        1812.       1800.       1789.       1778.       1766.       1755.       1744.       1733.       1722.       1711.    
        1701.       1690.       1679.       1669.       1658.       1648.       1638.       1628.       1618.       1608.    
        1599.       1590.       1580.       1571.       1563.       1554.    
 116    1712.       1756.       1889.       1851.       1907.       1836.       1802.       1796.       1803.       1833.    
        1869.       1880.       1869.       1837.       1834.       1825.       1801.       1806.       1826.       1839.    
        1780.       1770.       1740.       1746.       1722.       1732.       1778.       1814.       1832.       1851.    
        1874.       1892.       1900.       1926.       1967.       2011.       1984.       1989.       1990.       2013.    
        2013.       1909.       1897.       1886.       1874.       1862.       1850.       1839.       1827.       1815.    
        1804.       1792.       1781.       1769.       1758.       1747.       1736.       1724.       1713.       1702.    
        1691.       1681.       1670.       1659.       1648.       1638.       1628.       1617.       1607.       1597.    
        1587.       1578.       1568.       1559.       1550.       1541.    
 117    1694.       1738.       1806.       1826.       1905.       1829.       1820.       1797.       1817.       1845.    
        1858.       1862.       1843.       1828.       1807.       1813.       1801.       1787.       1802.       1813.    
        1780.       1752.       1718.       1712.       1728.       1763.       1804.       1824.       1845.       1862.    
        1886.       1918.       1918.       1938.       1987.       2015.       1975.       1951.       1980.       1974.    
        1914.       1902.       1890.       1878.       1866.       1854.       1843.       1831.       1819.       1807.    
        1796.       1784.       1773.       1761.       1750.       1738.       1727.       1716.       1705.       1694.    
        1682.       1671.       1661.       1650.       1639.       1628.       1618.       1607.       1597.       1587.    
        1577.       1567.       1557.       1547.       1538.       1529.    
 118    1671.       1716.       1775.       1810.       1848.       1801.       1783.       1800.       1823.       1812.    
        1812.       1833.       1813.       1792.       1794.       1792.       1805.       1772.       1782.       1789.    
        1777.       1740.       1708.       1719.       1759.       1787.       1805.       1816.       1826.       1844.    
        1865.       1899.       1934.       1950.       1997.       2003.       1981.       1931.       1937.       1947.    
        1907.       1895.       1883.       1871.       1859.       1847.       1835.       1823.       1812.       1800.    
        1788.       1776.       1765.       1753.       1742.       1730.       1719.       1707.       1696.       1685.    
        1674.       1663.       1652.       1641.       1630.       1619.       1608.       1598.       1587.       1577.    
        1566.       1556.       1546.       1536.       1526.       1517.    
 119    1645.       1718.       1747.       1762.       1804.       1769.       1788.       1821.       1810.       1785.    
        1782.       1797.       1785.       1773.       1771.       1771.       1785.       1777.       1757.       1768.    
        1747.       1710.       1723.       1743.       1785.       1818.       1826.       1840.       1857.       1857.    
        1890.       1893.       1919.       1951.       1993.       1973.       1942.       1926.       1913.       1913.    
        1900.       1888.       1876.       1864.       1852.       1840.       1828.       1816.       1804.       1792.    
        1780.       1769.       1757.       1745.       1734.       1722.       1711.       1699.       1688.       1677.    
        1665.       1654.       1643.       1632.       1621.       1610.       1599.       1588.       1577.       1567.    
        1556.       1546.       1536.       1525.       1515.       1506.    
 120    1614.       1668.       1689.       1811.       1750.       1765.       1792.       1812.       1784.       1763.    
        1761.       1770.       1763.       1746.       1743.       1750.       1766.       1763.       1740.       1748.    
        1709.       1719.       1747.       1779.       1803.       1828.       1846.       1865.       1883.       1879.    
        1885.       1917.       1948.       1977.       2029.       2008.       1940.       1901.       1887.       1906.    
        1894.       1882.       1869.       1857.       1845.       1833.       1821.       1809.       1797.       1785.    
        1773.       1761.       1749.       1738.       1726.       1714.       1703.       1691.       1680.       1668.    
        1657.       1646.       1634.       1623.       1612.       1601.       1590.       1579.       1568.       1557.    
        1547.       1536.       1526.       1515.       1505.       1495.    
 121    1578.       1614.       1699.       1789.       1744.       1776.       1804.       1799.       1773.       1750.    
        1741.       1740.       1756.       1767.       1734.       1754.       1743.       1741.       1715.       1701.    
        1700.       1742.       1775.       1785.       1814.       1838.       1859.       1879.       1906.       1911.    
        1900.       1921.       1964.       2006.       1988.       1975.       1955.       1927.       1913.       1900.    
        1888.       1875.       1863.       1850.       1838.       1826.       1814.       1802.       1790.       1778.    
        1766.       1754.       1742.       1730.       1718.       1707.       1695.       1683.       1672.       1660.    
        1649.       1637.       1626.       1615.       1603.       1592.       1581.       1570.       1559.       1548.    
        1537.       1527.       1516.       1505.       1495.       1484.    
 122    1535.       1604.       1702.       1746.       1755.       1785.       1800.       1797.       1765.       1734.    
        1719.       1710.       1740.       1730.       1703.       1695.       1693.       1692.       1686.       1685.    
        1718.       1748.       1786.       1796.       1817.       1855.       1886.       1892.       1924.       1945.    
        1928.       1944.       1973.       2002.       1979.       1946.       1924.       1920.       1907.       1894.    
        1881.       1869.       1856.       1844.       1831.       1819.       1807.       1795.       1783.       1770.    
        1758.       1746.       1735.       1723.       1711.       1699.       1687.       1676.       1664.       1652.    
        1641.       1629.       1618.       1606.       1595.       1584.       1573.       1561.       1550.       1539.    
        1528.       1517.       1506.       1496.       1485.       1475.    
 123    1507.       1645.       1746.       1737.       1767.       1780.       1776.       1765.       1753.       1724.    
        1698.       1684.       1694.       1679.       1674.       1672.       1666.       1675.       1687.       1711.    
        1745.       1770.       1781.       1800.       1835.       1875.       1896.       1922.       1929.       1964.    
        1966.       1982.       1979.       1965.       1962.       1963.       1949.       1912.       1901.       1888.    
        1875.       1863.       1850.       1837.       1825.       1813.       1800.       1788.       1776.       1764.    
        1751.       1739.       1727.       1715.       1703.       1692.       1680.       1668.       1656.       1645.    
        1633.       1621.       1610.       1598.       1587.       1575.       1564.       1553.       1542.       1530.    
        1519.       1508.       1497.       1486.       1476.       1465.    
 124    1567.       1647.       1735.       1752.       1764.       1757.       1749.       1723.       1720.       1709.    
        1693.       1662.       1655.       1662.       1669.       1683.       1692.       1704.       1715.       1744.    
        1765.       1790.       1802.       1822.       1856.       1887.       1925.       1943.       1970.       1964.    
        2008.       1980.       1983.       1941.       1925.       1947.       1913.       1905.       1895.       1883.    
        1870.       1857.       1844.       1831.       1819.       1806.       1794.       1781.       1769.       1757.    
        1745.       1732.       1720.       1708.       1696.       1684.       1672.       1661.       1649.       1637.    
        1625.       1614.       1602.       1590.       1579.       1567.       1556.       1545.       1533.       1522.    
        1511.       1500.       1489.       1478.       1467.       1456.    
 125    1571.       1668.       1753.       1746.       1734.       1725.       1704.       1690.       1687.       1671.    
        1655.       1657.       1664.       1682.       1709.       1714.       1723.       1739.       1752.       1749.    
        1764.       1795.       1827.       1860.       1884.       1918.       1935.       1966.       1967.       1933.    
        1966.       1956.       1950.       1957.       1904.       1912.       1907.       1899.       1890.       1879.    
        1867.       1853.       1838.       1826.       1813.       1800.       1787.       1775.       1762.       1750.    
        1738.       1726.       1713.       1701.       1689.       1677.       1665.       1653.       1641.       1629.    
        1618.       1606.       1594.       1583.       1571.       1559.       1548.       1536.       1525.       1514.    
        1502.       1491.       1480.       1469.       1458.       1447.    
 126    1585.       1698.       1715.       1711.       1701.       1686.       1676.       1665.       1649.       1654.    
        1669.       1693.       1714.       1716.       1707.       1726.       1736.       1756.       1771.       1780.    
        1775.       1784.       1831.       1868.       1889.       1902.       1906.       1924.       1931.       1904.    
        1918.       1926.       1908.       1924.       1927.       1928.       1898.       1897.       1887.       1877.    
        1865.       1852.       1837.       1820.       1807.       1794.       1782.       1769.       1756.       1744.    
        1731.       1719.       1707.       1694.       1682.       1670.       1658.       1646.       1634.       1622.    
        1610.       1598.       1587.       1575.       1563.       1552.       1540.       1528.       1517.       1505.    
        1494.       1483.       1471.       1460.       1449.       1438.    
 127    1585.       1671.       1702.       1684.       1668.       1664.       1651.       1643.       1658.       1694.    
        1719.       1746.       1759.       1737.       1719.       1746.       1757.       1769.       1798.       1814.    
        1803.       1796.       1812.       1837.       1856.       1873.       1866.       1897.       1916.       1880.    
        1894.       1892.       1890.       1905.       1940.       1979.       1947.       1885.       1886.       1877.    
        1865.       1852.       1838.       1822.       1805.       1787.       1776.       1763.       1750.       1738.    
        1725.       1712.       1700.       1688.       1675.       1663.       1651.       1639.       1627.       1615.    
        1603.       1591.       1579.       1567.       1556.       1544.       1532.       1521.       1509.       1497.    
        1486.       1475.       1463.       1452.       1441.       1429.    
 128    1559.       1650.       1641.       1644.       1642.       1644.       1651.       1688.       1711.       1724.    
        1744.       1759.       1772.       1753.       1740.       1770.       1786.       1798.       1810.       1802.    
        1796.       1790.       1787.       1810.       1828.       1839.       1851.       1897.       1897.       1895.    
        1869.       1871.       1873.       1889.       1937.       2003.       2033.       1968.       1872.       1865.    
        1869.       1855.       1841.       1825.       1809.       1791.       1770.       1755.       1744.       1732.    
        1719.       1706.       1694.       1681.       1669.       1656.       1644.       1632.       1620.       1608.    
        1596.       1584.       1572.       1560.       1548.       1536.       1525.       1513.       1501.       1490.    
        1478.       1466.       1455.       1444.       1432.       1421.    
 129    1535.       1584.       1583.       1604.       1635.       1667.       1708.       1727.       1736.       1748.    
        1760.       1772.       1786.       1781.       1766.       1762.       1775.       1774.       1779.       1784.    
        1761.       1761.       1770.       1789.       1828.       1828.       1865.       1847.       1850.       1852.    
        1854.       1855.       1856.       1858.       1916.       1995.       2083.       2087.       1988.       1859.    
        1833.       1861.       1848.       1832.       1814.       1796.       1777.       1757.       1735.       1724.    
        1713.       1700.       1688.       1675.       1662.       1650.       1638.       1625.       1613.       1601.    
        1589.       1577.       1565.       1553.       1541.       1529.       1517.       1505.       1493.       1482.    
        1470.       1459.       1447.       1435.       1424.       1413.    
 130    1515.       1504.       1554.       1601.       1669.       1687.       1707.       1714.       1726.       1735.    
        1730.       1738.       1767.       1771.       1761.       1752.       1761.       1759.       1769.       1756.    
        1745.       1743.       1760.       1793.       1813.       1822.       1829.       1833.       1836.       1838.    
        1839.       1840.       1840.       1842.       1878.       1970.       2080.       2168.       2141.       2009.    
        1847.       1797.       1840.       1842.       1824.       1806.       1786.       1766.       1744.       1721.    
        1702.       1693.       1682.       1669.       1656.       1644.       1631.       1619.       1606.       1594.    
        1582.       1570.       1558.       1545.       1533.       1522.       1510.       1498.       1486.       1474.    
        1462.       1451.       1439.       1428.       1416.       1405.    
 131    1533.       1545.       1585.       1623.       1657.       1681.       1693.       1734.       1747.       1728.    
        1708.       1722.       1751.       1758.       1753.       1749.       1747.       1755.       1760.       1758.    
        1765.       1775.       1784.       1791.       1799.       1808.       1815.       1819.       1822.       1824.    
        1824.       1825.       1825.       1825.       1826.       1927.       2050.       2183.       2255.       2196.    
        2031.       1836.       1758.       1804.       1836.       1819.       1799.       1778.       1755.       1733.    
        1709.       1684.       1671.       1662.       1650.       1638.       1625.       1612.       1600.       1588.    
        1575.       1563.       1551.       1539.       1526.       1514.       1502.       1490.       1479.       1467.    
        1455.       1443.       1431.       1420.       1408.       1397.    


 STRESS PERIOD     LENGTH       TIME STEPS     MULTIPLIER FOR DELT    SS FLAG
 ----------------------------------------------------------------------------
        1         15000.00      15000                    1.000         TR

 TRANSIENT SIMULATION



 
 # Animas MODFLOW model with initial head for 3rd round APEX-MODFLOW calibration 
 # Basic Package file created on 1/26/2022 by ModelMuse version 4.3.0.0.         
 # Number of active cells = 3537.
 THE FREE FORMAT OPTION HAS BEEN SELECTED
 THE PRINTTIME OPTION HAS BEEN SELECTED
 CALCULATE FLOW BETWEEN ADJACENT CONSTANT-HEAD CELLS



                     BOUNDARY ARRAY FOR LAYER   1
 READING ON UNIT 5013 WITH FORMAT: (FREE)              

          1     2     3     4     5     6     7     8     9    10    11    12    13    14    15    16    17    18    19    20
         21    22    23    24    25    26    27    28    29    30    31    32    33    34    35    36    37    38    39    40
         41    42    43    44    45    46    47    48    49    50    51    52    53    54    55    56    57    58    59    60
         61    62    63    64    65    66    67    68    69    70    71    72    73    74    75    76
 ............................................................................................................................
   1      0     0     0     0     0     0     0     0     0     0     0     0     0     0     0     0     0     0     0     0
          0     0     0     0     0     0     0     0     0     0     0     0     0     0     0     0     0     0     0     0
          0     0     0     0     0     0     0     0     0     0     0     0     0     0     0     0     0     0     0     0
          0     0     0     0     0     0     0     0     0     0     0     1     1     0     0     0
   2      0     0     0     0     0     0     0     0     0     0     0     0     0     0     0     0     0     0     0     0
          0     0     0     0     0     0     0     0     0     0     0     0     0     0     0     0     0     0     0     0
          0     0     0     0     0     0     0     0     0     0     0     0     0     0     0     0     0     0     0     0
          0     0     0     0     0     0     0     0     0     0     1     1     1     1     0     0
   3      0     0     0     0     0     0     0     0     0     0     0     0     0     0     0     0     0     0     0     0
          0     0     0     0     0     0     0     0     0     0     0     0     0     0     0     0     0     0     0     0
          0     0     0     0     0     0     0     0     0     0     0     0     0     0     0     0     0     0     0     0
          0     0     0     0     0     0     0     0     1     1     1     1     1     1     1     0
   4      0     0     0     0     0     0     0     0     0     0     0     0     0     0     0     0     0     0     0     0
          0     0     0     0     0     0     0     0     0     0     0     0     0     0     0     0     0     0     0     0
          0     0     0     0     0     0     0     0     0     0     0     0     0     0     0     0     0     0     0     0
          0     0     0     0     0     0     0     0     1     1     1     1     1     1     1     0
   5      0     0     0     0     0     0     0     0     0     0     0     0     0     0     0     0     0     0     0     0
          0     0     0     0     0     0     0     0     0     0     0     0     0     0     0     0     0     0     0     0
          0     0     0     0     0     0     0     0     0     0     0     0     0     0     0     0     0     0     0     0
          0     0     0     0     0     1     1     1     1     1     1     1     1     1     1     0
   6      0     0     0     0     0     0     0     0     0     0     0     0     0     0     0     0     0     0     0     0
          0     0     0     0     0     0     0     0     0     0     0     0     0     0     0     0     0     0     0     0
          0     0     0     0     0     0     0     0     0     0     0     0     0     0     0     0     1     1     1     1
          0     1     1     1     1     1     1     1     1     1     1     1     1     1     1     0
   7      0     0     0     0     0     0     0     0     0     0     0     0     0     0     0     0     0     0     0     0
          0     0     0     0     0     0     0     0     0     0     0     0     0     0     0     0     0     0     0     0
          0     0     0     0     0     0     0     0     0     0     0     0     0     0     0     1     1     1     1     1
          1     1     1     1     1     1     1     1     1     1     1     1     1     1     1     0
   8      0     0     0     0     0     0     0     0     0     0     0     0     0     0     0     0     0     0     0     0
          0     0     0     0     0     0     0     0     0     0     0     0     0     0     0     0     0     0     0     0
          0     0     0     0     0     0     0     0     0     0     0     0     0     0     1     1     1     1     1     1
          1     1     1     1     1     1     1     1     1     1     1     1     1     1     1     1
   9      0     0     0     0     0     0     0     0     0     0     0     0     0     0     0     0     0     0     0     0
          0     0     0     0     0     0     0     0     0     0     0     0     0     0     0     0     0     0     0     0
          0     0     0     0     0     0     0     0     0     0     0     0     0     1     1     1     1     1     1     1
          1     1     1     1     1     1     1     1     1     1     1     1     1     1     1     0
  10      0     0     0     0     0     0     0     0     0     0     0     0     0     0     0     0     0     0     0     0
          0     0     0     0     0     0     0     0     0     0     0     0     0     0     0     0     0     0     0     0
          0     0     0     0     0     0     0     0     0     0     0     0     0     1     1     1     1     1     1     1
          1     1     1     1     1     1     1     1     1     1     1     1     1     1     0     0
  11      0     0     0     0     0     0     0     0     0     0     0     0     0     0     0     0     0     0     0     0
          0     0     0     0     0     0     0     0     0     0     0     0     0     0     0     0     0     0     0     0
          0     0     0     0     0     0     0     0     0     0     0     0     0     1     1     1     1     1     1     1
          1     1     1     1     1     1     1     1     1     1     1     1     1     1     1     0
  12      0     0     0     0     0     0     0     0     0     0     0     0     0     0     0     0     0     0     0     0
          0     0     0     0     0     0     0     0     0     0     0     0     0     0     0     0     0     0     0     0
          0     0     0     0     0     0     0     0     0     0     0     0     1     1     1     1     1     1     1     1
          1     1     1     1     1     1     1     1     1     1     1     1     1     1     1     0
  13      0     0     0     0     0     0     0     0     0     0     0     0     0     0     0     0     0     0     0     0
          0     0     0     0     0     0     0     0     0     0     0     0     0     0     0     0     0     0     0     0
          0     0     0     0     0     0     0     0     0     0     0     1     1     1     1     1     1     1     1     1
          1     1     1     1     1     1     1     1     1     1     1     1     1     1     1     0
  14      0     0     0     0     0     0     0     0     0     0     0     0     0     0     0     0     0     0     0     0
          0     0     0     0     0     0     0     0     0     0     0     0     0     0     0     0     0     0     0     0
          0     0     0     0     0     0     0     0     0     1     1     1     1     1     1     1     1     1     1     1
          1     1     1     1     1     1     1     1     1     1     1     1     1     1     1     0
  15      0     0     0     0     0     0     0     0     0     0     0     0     0     0     0     0     0     0     0     0
          0     0     0     0     0     0     0     0     0     0     0     0     0     0     0     0     0     0     0     0
          0     0     0     0     0     0     0     0     1     1     1     1     1     1     1     1     1     1     1     1
          1     1     1     1     1     1     1     1     1     1     1     1     1     1     1     0
  16      0     0     0     0     0     0     0     0     0     0     0     0     0     0     0     0     0     0     0     0
          0     0     0     0     0     0     0     0     0     0     0     0     0     0     0     0     0     0     0     0
          0     0     0     0     0     0     0     0     1     1     1     1     1     1     1     1     1     1     1     1
          1     1     1     1     1     1     1     1     1     1     1     1     1     1     1     0
  17      0     0     0     0     0     0     0     0     0     0     0     0     0     0     0     0     0     0     0     0
          0     0     0     0     0     0     0     0     0     0     0     0     0     0     0     0     0     0     0     0
          0     0     0     0     0     0     0     1     1     1     1     1     1     1     1     1     1     1     1     1
          1     1     1     1     1     1     1     1     1     1     1     1     1     1     1     0
  18      0     0     0     0     0     0     0     0     0     0     0     0     0     0     0     0     0     0     0     0
          0     0     0     0     0     0     0     0     0     0     0     0     0     0     0     0     0     0     0     0
          0     0     0     0     0     0     0     1     1     1     1     1     1     1     1     1     1     1     1     1
          1     1     1     1     1     1     1     1     1     1     1     1     1     1     0     0
  19      0     0     0     0     0     0     0     0     0     0     0     0     0     0     0     0     0     0     0     0
          0     0     0     0     0     0     0     0     0     0     0     0     0     0     0     0     0     0     0     0
          0     0     0     0     1     1     1     1     1     1     1     1     1     1     1     1     1     1     1     1
          1     1     1     1     1     1     1     1     1     1     1     1     0     0     0     0
  20      0     0     0     0     0     0     0     0     0     0     0     0     0     0     0     0     0     0     0     0
          0     0     0     0     0     0     0     0     0     0     0     0     0     0     0     0     0     0     0     0
          0     0     0     0     1     1     1     1     1     1     1     1     1     1     1     1     1     1     1     1
          1     1     1     1     1     1     1     1     1     1     1     0     0     0     0     0
  21      0     0     0     0     0     0     0     0     0     0     0     0     0     0     0     0     0     0     0     0
          0     0     0     0     0     0     0     0     0     0     0     0     0     0     0     0     0     0     0     0
          0     0     0     0     1     1     1     1     1     1     1     1     1     1     1     1     1     1     1     1
          1     1     1     1     1     1     1     1     1     1     1     0     0     0     0     0
  22      0     0     0     0     0     0     0     0     0     0     0     0     0     0     0     0     0     0     0     0
          0     0     0     0     0     0     0     0     0     0     0     0     0     0     0     0     0     0     0     0
          0     0     0     1     1     1     1     1     1     1     1     1     1     1     1     1     1     1     1     1
          1     1     1     1     1     1     1     1     1     1     1     0     0     0     0     0
  23      0     0     0     0     0     0     0     0     0     0     0     0     0     0     0     0     0     0     0     0
          0     0     0     0     0     0     0     0     0     0     0     0     0     0     0     0     0     0     0     0
          0     0     0     1     1     1     1     1     1     1     1     1     1     1     1     1     1     1     1     1
          1     1     1     1     1     1     1     1     1     1     0     0     0     0     0     0
  24      0     0     0     0     0     0     0     0     0     0     0     0     0     0     0     0     0     0     0     0
          0     0     0     0     0     0     0     0     0     0     0     0     0     0     0     0     0     0     0     0
          1     0     0     1     1     1     1     1     1     1     1     1     1     1     1     1     1     1     1     1
          1     1     1     1     1     1     1     1     1     1     1     0     0     0     0     0
  25      0     0     0     0     0     0     0     0     0     0     0     0     0     0     0     0     0     0     0     0
          0     0     0     0     0     0     0     0     0     0     0     0     0     0     0     1     1     1     1     1
          1     1     1     1     1     1     1     1     1     1     1     1     1     1     1     1     1     1     1     1
          1     1     1     1     1     1     1     1     1     1     1     0     0     0     0     0
  26      0     0     0     0     0     0     0     0     0     0     0     0     0     0     0     0     0     0     0     0
          0     0     0     0     0     0     0     0     0     0     0     0     0     0     0     1     1     1     1     1
          1     1     1     1     1     1     1     1     1     1     1     1     1     1     1     1     1     1     1     1
          1     1     1     1     1     1     1     1     1     1     1     1     0     0     0     0
  27      0     0     0     0     0     0     0     0     0     0     0     0     0     0     0     0     0     0     0     0
          0     0     0     0     0     0     0     0     0     0     0     0     0     0     1     1     1     1     1     1
          1     1     1     1     1     1     1     1     1     1     1     1     1     1     1     1     1     1     1     1
          1     1     1     1     1     1     1     1     1     1     1     1     0     0     0     0
  28      0     0     0     0     0     0     0     0     0     0     0     0     0     0     0     0     0     0     0     0
          0     0     0     0     0     0     0     0     0     0     0     0     0     0     1     1     1     1     1     1
          1     1     1     1     1     1     1     1     1     1     1     1     1     1     1     1     1     1     1     1
          1     1     1     1     1     1     1     1     1     1     1     1     0     0     0     0
  29      0     0     0     0     0     0     0     0     0     0     0     0     0     0     0     0     0     0     0     0
          0     0     0     0     0     0     0     0     0     0     0     0     0     0     1     1     1     1     1     1
          1     1     1     1     1     1     1     1     1     1     1     1     1     1     1     1     1     1     1     1
          1     1     1     1     1     1     1     1     1     1     1     1     0     0     0     0
  30      0     0     0     0     0     0     0     0     0     0     0     0     0     0     0     0     0     0     0     0
          0     0     0     0     0     0     0     0     0     0     0     0     0     0     1     1     1     1     1     1
          1     1     1     1     1     1     1     1     1     1     1     1     1     1     1     1     1     1     1     1
          1     1     1     1     1     1     1     1     0     1     0     0     0     0     0     0
  31      0     0     0     0     0     0     0     0     0     0     0     0     0     0     0     0     0     0     0     0
          0     0     0     0     0     0     0     0     0     0     0     0     0     0     1     1     1     1     1     1
          1     1     1     1     1     1     1     1     1     1     1     1     1     1     1     1     1     1     1     1
          1     1     1     1     1     1     1     1     0     0     0     0     0     0     0     0
  32      0     0     0     0     0     0     0     0     0     0     0     0     0     0     0     0     0     0     0     0
          0     0     0     0     0     0     0     0     0     0     0     0     0     1     1     1     1     1     1     1
          1     1     1     1     1     1     1     1     1     1     1     1     1     1     1     1     1     1     1     1
          1     1     1     1     1     1     1     1     1     0     0     0     0     0     0     0
  33      0     0     0     0     0     0     0     0     0     0     0     0     0     0     0     0     0     0     0     0
          0     0     0     0     0     0     0     0     0     0     0     0     1     1     1     1     1     1     1     1
          1     1     1     1     1     1     1     1     1     1     1     1     1     1     1     1     1     1     1     1
          1     1     1     1     1     1     1     1     0     0     0     0     0     0     0     0
  34      0     0     0     0     0     0     0     0     0     0     0     0     0     0     0     0     0     0     0     0
          0     0     0     0     0     0     0     0     0     0     0     1     1     1     1     1     1     1     1     1
          1     1     1     1     1     1     1     1     1     1     1     1     1     1     1     1     1     1     1     1
          1     1     1     1     1     1     1     0     0     0     0     0     0     0     0     0
  35      0     0     0     0     0     0     0     0     0     0     0     0     0     0     0     0     0     0     0     0
          0     0     0     0     0     0     0     0     0     0     1     1     1     1     1     1     1     1     1     1
          1     1     1     1     1     1     1     1     1     1     1     1     1     1     1     1     1     1     1     1
          1     1     1     1     1     1     1     0     0     0     0     0     0     0     0     0
  36      0     0     0     0     0     0     0     0     0     0     0     0     0     0     0     0     0     0     0     0
          0     0     0     0     0     0     0     0     0     0     1     1     1     1     1     1     1     1     1     1
          1     1     1     1     1     1     1     1     1     1     1     1     1     1     1     1     1     1     1     1
          1     1     1     1     1     1     0     0     0     0     0     0     0     0     0     0
  37      0     0     0     0     0     0     0     0     0     0     0     0     0     0     0     0     0     0     0     0
          0     0     0     0     0     0     0     0     0     0     1     1     1     1     1     1     1     1     1     1
          1     1     1     1     1     1     1     1     1     1     1     1     1     1     1     1     1     1     1     1
          1     1     1     1     1     1     0     0     0     0     0     0     0     0     0     0
  38      0     0     0     0     0     0     0     0     0     0     0     0     0     0     0     0     0     0     0     0
          0     0     0     0     0     0     0     0     0     1     1     1     1     1     1     1     1     1     1     1
          1     1     1     1     1     1     1     1     1     1     1     1     1     1     1     1     1     1     1     1
          1     1     1     1     1     1     0     0     0     0     0     0     0     0     0     0
  39      0     0     0     0     0     0     0     0     0     0     0     0     0     0     0     0     0     0     0     0
          0     0     0     0     0     0     0     0     0     1     1     1     1     1     1     1     1     1     1     1
          1     1     1     1     1     1     1     1     1     1     1     1     1     1     1     1     1     1     1     1
          1     1     1     1     1     1     0     0     0     0     0     0     0     0     0     0
  40      0     0     0     0     0     0     0     0     0     0     0     0     0     0     0     0     0     0     0     0
          0     0     0     0     0     0     0     0     1     1     1     1     1     1     1     1     1     1     1     1
          1     1     1     1     1     1     1     1     1     1     1     1     1     1     1     1     1     1     1     1
          1     1     1     1     1     0     0     0     0     0     0     0     0     0     0     0
  41      0     0     0     0     0     0     0     0     0     0     0     0     0     0     0     0     0     0     0     0
          0     0     0     0     0     0     0     0     1     1     1     1     1     1     1     1     1     1     1     1
          1     1     1     1     1     1     1     1     1     1     1     1     1     1     1     1     1     1     1     1
          1     1     1     1     0     0     0     0     0     0     0     0     0     0     0     0
  42      0     0     0     0     0     0     0     0     0     0     0     0     0     0     0     0     0     0     0     0
          0     0     0     0     0     0     0     1     1     1     1     1     1     1     1     1     1     1     1     1
          1     1     1     1     1     1     1     1     1     1     1     1     1     1     1     1     1     1     1     1
          1     1     1     1     0     0     0     0     0     0     0     0     0     0     0     0
  43      0     0     0     0     0     0     0     0     0     0     0     0     0     0     0     0     0     0     0     0
          0     0     0     0     0     0     0     1     1     1     1     1     1     1     1     1     1     1     1     1
          1     1     1     1     1     1     1     1     1     1     1     1     1     1     1     1     1     1     1     1
          1     1     1     1     1     1     0     0     0     0     0     0     0     0     0     0
  44      0     0     0     0     0     0     0     0     0     0     0     0     0     0     0     0     0     0     0     0
          0     0     0     0     0     0     1     1     1     1     1     1     1     1     1     1     1     1     1     1
          1     1     1     1     1     1     1     1     1     1     1     1     1     1     1     1     1     1     1     1
          1     1     1     1     1     1     0     0     0     0     0     0     0     0     0     0
  45      0     0     0     0     0     0     0     0     0     0     0     0     0     0     0     0     0     0     0     0
          0     0     0     0     0     0     1     1     1     1     1     1     1     1     1     1     1     1     1     1
          1     1     1     1     1     1     1     1     1     1     1     1     1     1     1     1     1     1     1     1
          1     1     1     1     1     1     0     0     0     0     0     0     0     0     0     0
  46      0     0     0     0     0     0     0     0     0     0     0     0     0     0     0     0     0     0     0     0
          0     0     0     0     0     0     1     1     1     1     1     1     1     1     1     1     1     1     1     1
          1     1     1     1     1     1     1     1     1     1     1     1     1     1     1     1     1     1     1     1
          1     1     1     1     1     1     1     1     0     0     0     0     0     0     0     0
  47      0     0     0     0     0     0     0     0     0     0     0     0     0     0     0     0     0     0     0     0
          0     0     0     0     0     0     1     1     1     1     1     1     1     1     1     1     1     1     1     1
          1     1     1     1     1     1     1     1     1     1     1     1     1     1     1     1     1     1     1     1
          1     1     1     1     1     1     1     1     0     0     0     0     0     0     0     0
  48      0     0     0     0     0     0     0     0     0     0     0     0     0     0     0     0     0     0     0     0
          0     0     0     0     0     1     1     1     1     1     1     1     1     1     1     1     1     1     1     1
          1     1     1     1     1     1     1     1     1     1     1     1     1     1     1     1     1     1     1     1
          1     1     1     1     1     0     0     0     0     0     0     0     0     0     0     0
  49      0     0     0     0     0     0     0     0     0     0     0     0     0     0     0     0     0     0     0     0
          0     0     0     0     0     1     1     1     1     1     1     1     1     1     1     1     1     1     1     1
          1     1     1     1     1     1     1     1     1     1     1     1     1     1     1     1     1     1     1     1
          1     1     1     1     0     0     0     0     0     0     0     0     0     0     0     0
  50      0     0     0     0     0     0     0     0     0     0     0     0     0     0     0     0     0     0     0     0
          0     0     0     0     0     1     1     1     1     1     1     1     1     1     1     1     1     1     1     1
          1     1     1     1     1     1     1     1     1     1     1     1     1     1     1     1     1     1     1     1
          1     1     1     1     0     0     0     0     0     0     0     0     0     0     0     0
  51      0     0     0     0     0     0     0     0     0     0     0     0     0     0     0     0     0     0     0     0
          0     0     0     0     0     1     1     1     1     1     1     1     1     1     1     1     1     1     1     1
          1     1     1     1     1     1     1     1     1     1     1     1     1     1     1     1     1     1     1     1
          1     1     1     0     0     0     0     0     0     0     0     0     0     0     0     0
  52      0     0     0     0     0     0     0     0     0     0     0     0     0     0     0     0     0     0     0     0
          0     0     0     0     0     0     0     1     1     1     1     1     1     1     1     1     1     1     1     1
          1     1     1     1     1     1     1     1     1     1     1     1     1     1     1     1     1     1     1     1
          1     1     1     0     0     0     0     0     0     0     0     0     0     0     0     0
  53      0     0     0     0     0     0     0     0     0     0     0     0     0     0     0     0     0     0     0     0
          0     0     0     0     0     0     0     0     1     1     1     1     1     1     1     1     1     1     1     1
          1     1     1     1     1     1     1     1     1     1     1     1     1     1     1     1     1     1     1     1
          1     1     0     0     0     0     0     0     0     0     0     0     0     0     0     0
  54      0     0     0     0     0     0     0     0     0     0     0     0     0     0     0     0     0     0     0     0
          0     0     0     0     0     0     0     1     1     1     1     1     1     1     1     1     1     1     1     1
          1     1     1     1     1     1     1     1     1     1     1     1     1     1     1     1     1     1     1     1
          1     0     0     0     0     0     0     0     0     0     0     0     0     0     0     0
  55      0     0     0     0     0     0     0     0     0     0     0     0     0     0     0     0     0     0     0     0
          0     0     0     0     0     0     0     1     1     1     1     1     1     1     1     1     1     1     1     1
          1     1     1     1     1     1     1     1     1     1     1     1     1     1     1     1     1     1     1     1
          1     0     0     0     0     0     0     0     0     0     0     0     0     0     0     0
  56      0     0     0     0     0     0     0     0     0     0     0     0     0     0     0     0     0     0     0     0
          0     0     0     0     0     0     1     1     1     1     1     1     1     1     1     1     1     1     1     1
          1     1     1     1     1     1     1     1     1     1     1     1     1     1     1     1     1     1     1     1
          1     1     0     0     0     0     0     0     0     0     0     0     0     0     0     0
  57      0     0     0     0     0     0     0     0     0     0     0     0     0     0     0     0     0     0     0     0
          0     0     0     0     0     0     1     1     1     1     1     1     1     1     1     1     1     1     1     1
          1     1     1     1     1     1     1     1     1     1     1     1     1     1     1     1     1     1     1     1
          1     1     0     0     0     0     0     0     0     0     0     0     0     0     0     0
  58      0     0     0     0     0     0     0     0     0     0     0     0     0     0     0     0     0     0     0     0
          0     0     0     0     1     1     1     1     1     1     1     1     1     1     1     1     1     1     1     1
          1     1     1     1     1     1     1     1     1     1     1     1     1     1     1     1     1     1     1     1
          1     0     0     0     0     0     0     0     0     0     0     0     0     0     0     0
  59      0     0     0     0     0     0     0     0     0     0     0     0     0     0     0     0     0     0     0     0
          0     0     0     0     0     1     1     1     1     1     1     1     1     1     1     1     1     1     1     1
          1     1     1     1     1     1     1     1     1     1     1     1     1     1     1     1     1     1     1     1
          0     0     0     0     0     0     0     0     0     0     0     0     0     0     0     0
  60      0     0     0     0     0     0     0     0     0     0     0     0     0     0     0     0     0     0     0     0
          0     0     0     0     1     1     1     1     1     1     1     1     1     1     1     1     1     1     1     1
          1     1     1     1     1     1     1     1     1     1     1     1     1     1     1     1     1     1     1     0
          0     0     0     0     0     0     0     0     0     0     0     0     0     0     0     0
  61      0     0     0     0     0     0     0     0     0     0     0     0     0     0     0     0     0     0     0     0
          0     0     0     0     1     1     1     1     1     1     1     1     1     1     1     1     1     1     1     1
          1     1     1     1     1     1     1     1     1     1     1     1     1     1     1     1     1     1     1     0
          0     0     0     0     0     0     0     0     0     0     0     0     0     0     0     0
  62      0     0     0     0     0     0     0     0     0     0     0     0     0     0     0     0     0     0     0     0
          0     0     0     0     1     1     1     1     1     1     1     1     1     1     1     1     1     1     1     1
          1     1     1     1     1     1     1     1     1     1     1     1     1     1     1     1     1     1     1     0
          0     0     0     0     0     0     0     0     0     0     0     0     0     0     0     0
  63      0     0     0     0     0     0     0     0     0     0     0     0     0     0     0     0     0     0     0     0
          0     0     0     1     1     1     1     1     1     1     1     1     1     1     1     1     1     1     1     1
          1     1     1     1     1     1     1     1     1     1     1     1     1     1     1     1     1     1     1     0
          0     0     0     0     0     0     0     0     0     0     0     0     0     0     0     0
  64      0     0     0     0     0     0     0     0     0     0     0     0     0     0     0     0     0     0     0     0
          0     0     0     1     1     1     1     1     1     1     1     1     1     1     1     1     1     1     1     1
          1     1     1     1     1     1     1     1     1     1     1     1     1     1     1     1     1     1     0     0
          0     0     0     0     0     0     0     0     0     0     0     0     0     0     0     0
  65      0     0     0     0     0     0     0     0     0     0     0     0     0     0     0     0     0     0     0     0
          0     0     0     1     1     1     1     1     1     1     1     1     1     1     1     1     1     1     1     1
          1     1     1     1     1     1     1     1     1     1     1     1     1     1     1     1     1     0     0     0
          0     0     0     0     0     0     0     0     0     0     0     0     0     0     0     0
  66      0     0     0     0     0     0     0     0     0     0     0     0     0     0     0     0     0     0     0     0
          0     0     0     1     1     1     1     1     1     1     1     1     1     1     1     1     1     1     1     1
          1     1     1     1     1     1     1     1     1     1     1     1     1     1     1     1     0     0     0     0
          0     0     0     0     0     0     0     0     0     0     0     0     0     0     0     0
  67      0     0     0     0     0     0     0     0     0     0     0     0     0     0     0     0     0     0     0     0
          0     0     0     1     1     1     1     1     1     1     1     1     1     1     1     1     1     1     1     1
          1     1     1     1     1     1     1     1     1     1     1     1     1     1     1     1     0     0     0     0
          0     0     0     0     0     0     0     0     0     0     0     0     0     0     0     0
  68      0     0     0     0     0     0     0     0     0     0     0     0     0     0     0     0     0     0     0     0
          0     0     0     1     1     1     1     1     1     1     1     1     1     1     1     1     1     1     1     1
          1     1     1     1     1     1     1     1     1     1     1     1     1     1     0     0     0     0     0     0
          0     0     0     0     0     0     0     0     0     0     0     0     0     0     0     0
  69      0     0     0     0     0     0     0     0     0     0     0     0     0     0     0     0     0     0     0     0
          0     0     0     0     1     1     1     1     1     1     1     1     1     1     1     1     1     1     1     1
          1     1     1     1     1     1     1     1     1     1     1     1     1     0     0     0     0     0     0     0
          0     0     0     0     0     0     0     0     0     0     0     0     0     0     0     0
  70      0     0     0     0     0     0     0     0     0     0     0     0     0     0     0     0     0     0     0     0
          0     0     0     0     1     1     1     1     1     1     1     1     1     1     1     1     1     1     1     1
          1     1     1     1     1     1     1     1     1     1     1     0     0     0     0     0     0     0     0     0
          0     0     0     0     0     0     0     0     0     0     0     0     0     0     0     0
  71      0     0     0     0     0     0     0     0     0     0     0     0     0     0     0     0     0     0     0     0
          0     0     0     1     1     1     1     1     1     1     1     1     1     1     1     1     1     1     1     1
          1     1     1     1     1     1     1     1     1     1     1     1     0     0     0     0     0     0     0     0
          0     0     0     0     0     0     0     0     0     0     0     0     0     0     0     0
  72      0     0     0     0     0     0     0     0     0     0     0     0     0     0     0     0     0     0     0     0
          0     0     0     1     1     1     1     1     1     1     1     1     1     1     1     1     1     1     1     1
          1     1     1     1     1     1     1     1     1     1     1     1     0     0     0     0     0     0     0     0
          0     0     0     0     0     0     0     0     0     0     0     0     0     0     0     0
  73      0     0     0     0     0     0     0     0     0     0     0     0     0     0     0     0     0     0     0     0
          0     0     0     0     1     1     1     1     1     1     1     1     1     1     1     1     1     1     1     1
          1     1     1     1     1     1     1     1     1     1     1     1     0     0     0     0     0     0     0     0
          0     0     0     0     0     0     0     0     0     0     0     0     0     0     0     0
  74      0     0     0     0     0     0     0     0     0     0     0     0     0     0     0     0     0     0     0     0
          0     0     0     0     1     1     1     1     1     1     1     1     1     1     1     1     1     1     1     1
          1     1     1     1     1     1     1     1     1     1     1     0     0     0     0     0     0     0     0     0
          0     0     0     0     0     0     0     0     0     0     0     0     0     0     0     0
  75      0     0     0     0     0     0     0     0     0     0     0     0     0     0     0     0     0     0     0     0
          0     0     0     0     1     1     1     1     1     1     1     1     1     1     1     1     1     1     1     1
          1     1     1     1     1     1     1     1     1     1     0     0     0     0     0     0     0     0     0     0
          0     0     0     0     0     0     0     0     0     0     0     0     0     0     0     0
  76      0     0     0     0     0     0     0     0     0     0     0     0     0     0     0     0     0     0     0     0
          0     0     0     0     1     1     1     1     1     1     1     1     1     1     1     1     1     1     1     1
          1     1     1     1     1     1     1     1     1     1     0     0     0     0     0     0     0     0     0     0
          0     0     0     0     0     0     0     0     0     0     0     0     0     0     0     0
  77      0     0     0     0     0     0     0     0     0     0     0     0     0     0     0     0     0     0     0     0
          0     0     0     0     1     1     1     1     1     1     1     1     1     1     1     1     1     1     1     1
          1     1     1     1     1     1     1     1     1     1     0     0     0     0     0     0     0     0     0     0
          0     0     0     0     0     0     0     0     0     0     0     0     0     0     0     0
  78      0     0     0     0     0     0     0     0     0     0     0     0     0     0     0     0     0     0     0     0
          0     0     0     1     1     1     1     1     1     1     1     1     1     1     1     1     1     1     1     1
          1     1     1     1     1     1     1     1     1     1     0     0     0     0     0     0     0     0     0     0
          0     0     0     0     0     0     0     0     0     0     0     0     0     0     0     0
  79      0     0     0     0     0     0     0     0     0     0     0     0     0     0     0     0     0     0     0     0
          0     0     0     1     1     1     1     1     1     1     1     1     1     1     1     1     1     1     1     1
          1     1     1     1     1     1     1     1     1     1     0     0     0     0     0     0     0     0     0     0
          0     0     0     0     0     0     0     0     0     0     0     0     0     0     0     0
  80      0     0     0     0     0     0     0     0     0     0     0     0     0     0     0     0     0     0     0     0
          0     0     0     0     1     1     1     1     1     1     1     1     1     1     1     1     1     1     1     1
          1     1     1     1     1     1     1     1     1     1     1     0     0     0     0     0     0     0     0     0
          0     0     0     0     0     0     0     0     0     0     0     0     0     0     0     0
  81      0     0     0     0     0     0     0     0     0     0     0     0     0     0     0     0     0     0     0     0
          0     0     0     0     0     1     1     1     1     1     1     1     1     1     1     1     1     1     1     1
          1     1     1     1     1     1     1     1     1     1     1     0     0     0     0     0     0     0     0     0
          0     0     0     0     0     0     0     0     0     0     0     0     0     0     0     0
  82      0     0     0     0     0     0     0     0     0     0     0     0     0     0     0     0     0     0     0     0
          0     0     0     0     0     1     1     1     1     1     1     1     1     1     1     1     1     1     1     1
          1     1     1     1     1     1     1     1     1     1     1     1     0     0     0     0     0     0     0     0
          0     0     0     0     0     0     0     0     0     0     0     0     0     0     0     0
  83      0     0     0     0     0     0     0     0     0     0     0     0     0     0     0     0     0     0     0     0
          0     0     0     0     1     1     1     1     1     1     1     1     1     1     1     1     1     1     1     1
          1     1     1     1     1     1     1     1     1     1     1     1     0     0     0     0     0     0     0     0
          0     0     0     0     0     0     0     0     0     0     0     0     0     0     0     0
  84      0     0     0     0     0     0     0     0     0     0     0     0     0     0     0     0     0     0     0     0
          0     0     0     0     1     1     1     1     1     1     1     1     1     1     1     1     1     1     1     1
          1     1     1     1     1     1     1     1     1     1     1     1     0     0     0     0     0     0     0     0
          0     0     0     0     0     0     0     0     0     0     0     0     0     0     0     0
  85      0     0     0     0     0     0     0     0     0     0     0     0     0     0     0     0     0     0     0     0
          0     0     0     0     1     1     1     1     1     1     1     1     1     1     1     1     1     1     1     1
          1     1     1     1     1     1     1     1     1     1     1     0     0     0     0     0     0     0     0     0
          0     0     0     0     0     0     0     0     0     0     0     0     0     0     0     0
  86      0     0     0     0     0     0     0     0     0     0     0     0     0     0     0     0     0     0     0     0
          0     0     0     0     1     1     1     1     1     1     1     1     1     1     1     1     1     1     1     1
          1     1     1     1     1     1     1     1     1     1     1     1     0     0     0     0     0     0     0     0
          0     0     0     0     0     0     0     0     0     0     0     0     0     0     0     0
  87      0     0     0     0     0     0     0     0     0     0     0     0     0     0     0     0     0     0     0     0
          0     0     0     0     0     1     1     1     1     1     1     1     1     1     1     1     1     1     1     1
          1     1     1     1     1     1     1     1     1     1     1     0     0     0     0     0     0     0     0     0
          0     0     0     0     0     0     0     0     0     0     0     0     0     0     0     0
  88      0     0     0     0     0     0     0     0     0     0     0     0     0     0     0     0     0     0     0     0
          0     0     0     0     0     1     1     1     1     1     1     1     1     1     1     1     1     1     1     1
          1     1     1     1     1     1     1     1     1     1     0     0     0     0     0     0     0     0     0     0
          0     0     0     0     0     0     0     0     0     0     0     0     0     0     0     0
  89      0     0     0     0     0     0     0     0     0     0     0     0     0     0     0     0     0     0     0     0
          0     0     0     0     0     1     1     1     1     1     1     1     1     1     1     1     1     1     1     1
          1     1     1     1     1     1     1     1     1     0     0     0     0     0     0     0     0     0     0     0
          0     0     0     0     0     0     0     0     0     0     0     0     0     0     0     0
  90      0     0     0     0     0     0     0     0     0     0     0     0     0     0     0     0     0     0     0     0
          0     0     0     0     0     0     1     1     1     1     1     1     1     1     1     1     1     1     1     1
          1     1     1     1     1     1     1     1     0     0     0     0     0     0     0     0     0     0     0     0
          0     0     0     0     0     0     0     0     0     0     0     0     0     0     0     0
  91      0     0     0     0     0     0     0     0     0     0     0     0     0     0     0     0     0     0     0     0
          0     0     0     0     0     1     1     1     1     1     1     1     1     1     1     1     1     1     1     1
          1     1     1     1     1     1     1     1     0     0     0     0     0     0     0     0     0     0     0     0
          0     0     0     0     0     0     0     0     0     0     0     0     0     0     0     0
  92      0     0     0     0     0     0     0     0     0     0     0     0     0     0     0     0     0     0     0     0
          0     0     0     0     0     1     1     1     1     1     1     1     1     1     1     1     1     1     1     1
          1     1     1     1     1     1     1     0     0     0     0     0     0     0     0     0     0     0     0     0
          0     0     0     0     0     0     0     0     0     0     0     0     0     0     0     0
  93      0     0     0     0     0     0     0     0     0     0     0     0     0     0     0     0     0     0     0     0
          0     0     0     0     0     1     1     1     1     1     1     1     1     1     1     1     1     1     1     1
          1     1     1     1     1     1     1     0     0     0     0     0     0     0     0     0     0     0     0     0
          0     0     0     0     0     0     0     0     0     0     0     0     0     0     0     0
  94      0     0     0     0     0     0     0     0     0     0     0     0     0     0     0     0     0     0     0     0
          0     0     0     0     0     0     1     1     1     1     1     1     1     1     1     1     1     1     1     1
          1     1     1     1     1     1     1     1     0     0     0     0     0     0     0     0     0     0     0     0
          0     0     0     0     0     0     0     0     0     0     0     0     0     0     0     0
  95      0     0     0     0     0     0     0     0     0     0     0     0     0     0     0     0     0     0     0     0
          0     0     0     0     0     0     1     1     1     1     1     1     1     1     1     1     1     1     1     1
          1     1     1     1     1     1     1     1     0     0     0     0     0     0     0     0     0     0     0     0
          0     0     0     0     0     0     0     0     0     0     0     0     0     0     0     0
  96      0     0     0     0     0     0     0     0     0     0     0     0     0     0     0     0     0     0     0     0
          0     0     0     0     0     0     1     1     1     1     1     1     1     1     1     1     1     1     1     1
          1     1     1     1     1     1     1     0     0     0     0     0     0     0     0     0     0     0     0     0
          0     0     0     0     0     0     0     0     0     0     0     0     0     0     0     0
  97      0     0     0     0     0     0     0     0     0     0     0     0     0     0     0     0     0     0     0     0
          0     0     0     0     0     0     1     1     1     1     1     1     1     1     1     1     1     1     1     1
          1     1     0     0     0     0     0     0     0     0     0     0     0     0     0     0     0     0     0     0
          0     0     0     0     0     0     0     0     0     0     0     0     0     0     0     0
  98      0     0     0     0     0     0     0     0     0     0     0     0     0     0     0     0     0     0     0     0
          0     0     0     0     0     1     1     1     1     1     1     1     1     1     1     1     1     1     1     1
          1     0     0     0     0     0     0     0     0     0     0     0     0     0     0     0     0     0     0     0
          0     0     0     0     0     0     0     0     0     0     0     0     0     0     0     0
  99      0     0     0     0     0     0     0     0     0     0     0     0     0     0     0     0     0     0     0     0
          0     0     0     0     1     1     1     1     1     1     1     1     1     1     1     1     1     1     1     1
          1     0     0     0     0     0     0     0     0     0     0     0     0     0     0     0     0     0     0     0
          0     0     0     0     0     0     0     0     0     0     0     0     0     0     0     0
 100      0     0     0     0     0     0     0     0     0     0     0     0     0     0     0     0     0     0     0     0
          0     0     0     0     1     1     1     1     1     1     1     1     1     1     1     1     1     1     1     1
          1     0     0     0     0     0     0     0     0     0     0     0     0     0     0     0     0     0     0     0
          0     0     0     0     0     0     0     0     0     0     0     0     0     0     0     0
 101      0     0     0     0     0     0     0     0     0     0     0     0     0     0     0     0     0     0     0     0
          0     0     0     0     1     1     1     1     1     1     1     1     1     1     1     1     1     1     1     1
          1     0     0     0     0     0     0     0     0     0     0     0     0     0     0     0     0     0     0     0
          0     0     0     0     0     0     0     0     0     0     0     0     0     0     0     0
 102      0     0     0     0     0     0     0     0     0     0     0     0     0     0     0     0     0     0     0     0
          0     0     0     1     1     1     1     1     1     1     1     1     1     1     1     1     1     1     1     1
          0     0     0     0     0     0     0     0     0     0     0     0     0     0     0     0     0     0     0     0
          0     0     0     0     0     0     0     0     0     0     0     0     0     0     0     0
 103      0     0     0     0     0     0     0     0     0     0     0     0     0     0     0     0     0     0     0     0
          0     0     0     1     1     1     1     1     1     1     1     1     1     1     1     1     1     1     1     1
          0     0     0     0     0     0     0     0     0     0     0     0     0     0     0     0     0     0     0     0
          0     0     0     0     0     0     0     0     0     0     0     0     0     0     0     0
 104      0     0     0     0     0     0     0     0     0     0     0     0     0     0     0     0     0     0     0     0
          0     0     1     1     1     1     1     1     1     1     1     1     1     1     1     1     1     1     1     1
          0     0     0     0     0     0     0     0     0     0     0     0     0     0     0     0     0     0     0     0
          0     0     0     0     0     0     0     0     0     0     0     0     0     0     0     0
 105      0     0     0     0     0     0     0     0     0     0     0     0     0     0     0     0     0     0     0     0
          0     0     1     1     1     1     1     1     1     1     1     1     1     1     1     1     1     1     1     1
          0     0     0     0     0     0     0     0     0     0     0     0     0     0     0     0     0     0     0     0
          0     0     0     0     0     0     0     0     0     0     0     0     0     0     0     0
 106      0     0     0     0     0     0     0     0     0     0     0     0     0     0     0     0     0     0     0     0
          0     1     1     1     1     1     1     1     1     1     1     1     1     1     1     1     1     1     1     1
          0     0     0     0     0     0     0     0     0     0     0     0     0     0     0     0     0     0     0     0
          0     0     0     0     0     0     0     0     0     0     0     0     0     0     0     0
 107      0     0     0     0     0     0     0     0     0     0     0     0     0     0     0     0     0     0     0     0
          1     1     1     1     1     1     1     1     1     1     1     1     1     1     1     1     1     1     1     1
          0     0     0     0     0     0     0     0     0     0     0     0     0     0     0     0     0     0     0     0
          0     0     0     0     0     0     0     0     0     0     0     0     0     0     0     0
 108      0     0     0     0     0     0     0     0     0     0     0     0     0     0     0     0     0     0     0     0
          1     1     1     1     1     1     1     1     1     1     1     1     1     1     1     1     1     1     1     1
          0     0     0     0     0     0     0     0     0     0     0     0     0     0     0     0     0     0     0     0
          0     0     0     0     0     0     0     0     0     0     0     0     0     0     0     0
 109      0     0     0     0     0     0     0     0     0     0     0     0     0     0     0     0     0     0     0     0
          1     1     1     1     1     1     1     1     1     1     1     1     1     1     1     1     1     1     1     1
          0     0     0     0     0     0     0     0     0     0     0     0     0     0     0     0     0     0     0     0
          0     0     0     0     0     0     0     0     0     0     0     0     0     0     0     0
 110      0     0     0     0     0     0     0     0     0     0     0     0     0     0     0     0     0     0     0     1
          1     1     1     1     1     1     1     1     1     1     1     1     1     1     1     1     1     1     1     0
          0     0     0     0     0     0     0     0     0     0     0     0     0     0     0     0     0     0     0     0
          0     0     0     0     0     0     0     0     0     0     0     0     0     0     0     0
 111      0     0     0     0     0     0     0     0     0     0     0     0     0     0     0     0     0     1     1     1
          1     1     1     1     1     1     1     1     1     1     1     1     1     1     1     1     1     1     0     0
          0     0     0     0     0     0     0     0     0     0     0     0     0     0     0     0     0     0     0     0
          0     0     0     0     0     0     0     0     0     0     0     0     0     0     0     0
 112      0     0     0     0     0     0     0     0     0     0     0     0     0     0     0     1     1     1     1     1
          1     1     1     1     1     1     1     1     1     1     1     1     1     1     1     1     1     1     0     0
          0     0     0     0     0     0     0     0     0     0     0     0     0     0     0     0     0     0     0     0
          0     0     0     0     0     0     0     0     0     0     0     0     0     0     0     0
 113      0     0     0     0     0     0     0     0     0     0     0     0     0     0     1     1     1     1     1     1
          1     1     1     1     1     1     1     1     1     1     1     1     1     1     1     1     1     1     0     0
          0     0     0     0     0     0     0     0     0     0     0     0     0     0     0     0     0     0     0     0
          0     0     0     0     0     0     0     0     0     0     0     0     0     0     0     0
 114      0     0     0     0     0     0     0     0     0     0     0     0     0     1     1     1     1     1     1     1
          1     1     1     1     1     1     1     1     1     1     1     1     1     1     1     1     1     1     0     0
          0     0     0     0     0     0     0     0     0     0     0     0     0     0     0     0     0     0     0     0
          0     0     0     0     0     0     0     0     0     0     0     0     0     0     0     0
 115      0     0     0     0     0     0     0     0     0     0     0     0     1     1     1     1     1     1     1     1
          1     1     1     1     1     1     1     1     1     1     1     1     1     1     1     1     0     0     0     0
          0     0     0     0     0     0     0     0     0     0     0     0     0     0     0     0     0     0     0     0
          0     0     0     0     0     0     0     0     0     0     0     0     0     0     0     0
 116      0     0     0     0     0     0     0     0     0     0     0     1     1     1     1     1     1     1     1     1
          1     1     1     1     1     1     1     1     1     1     1     1     1     1     1     1     0     0     0     0
          0     0     0     0     0     0     0     0     0     0     0     0     0     0     0     0     0     0     0     0
          0     0     0     0     0     0     0     0     0     0     0     0     0     0     0     0
 117      0     0     0     0     0     0     0     0     0     0     1     1     1     1     1     1     1     1     1     1
          1     1     1     1     1     1     1     1     1     1     1     1     1     1     1     0     0     0     0     0
          0     0     0     0     0     0     0     0     0     0     0     0     0     0     0     0     0     0     0     0
          0     0     0     0     0     0     0     0     0     0     0     0     0     0     0     0
 118      0     0     0     0     0     0     0     0     1     1     1     1     1     1     1     1     1     1     1     1
          1     1     1     1     1     1     1     1     1     1     1     1     1     1     1     0     0     0     0     0
          0     0     0     0     0     0     0     0     0     0     0     0     0     0     0     0     0     0     0     0
          0     0     0     0     0     0     0     0     0     0     0     0     0     0     0     0
 119      0     0     0     0     0     0     0     0     1     1     1     1     1     1     1     1     1     1     1     1
          1     1     1     1     1     1     1     1     1     1     1     1     1     1     1     0     0     0     0     0
          0     0     0     0     0     0     0     0     0     0     0     0     0     0     0     0     0     0     0     0
          0     0     0     0     0     0     0     0     0     0     0     0     0     0     0     0
 120      0     0     0     0     0     0     0     0     1     1     1     1     1     1     1     1     1     1     1     1
          1     1     1     1     1     1     1     1     1     1     1     1     1     1     1     0     0     0     0     0
          0     0     0     0     0     0     0     0     0     0     0     0     0     0     0     0     0     0     0     0
          0     0     0     0     0     0     0     0     0     0     0     0     0     0     0     0
 121      0     0     0     0     0     0     0     1     1     1     1     1     1     1     1     1     1     1     1     1
          1     1     1     1     1     1     1     1     1     1     1     1     1     1     0     0     0     0     0     0
          0     0     0     0     0     0     0     0     0     0     0     0     0     0     0     0     0     0     0     0
          0     0     0     0     0     0     0     0     0     0     0     0     0     0     0     0
 122      0     0     0     0     0     0     0     1     1     1     1     1     1     1     1     1     1     1     1     1
          1     1     1     1     1     1     1     1     1     1     1     1     1     0     0     0     0     0     0     0
          0     0     0     0     0     0     0     0     0     0     0     0     0     0     0     0     0     0     0     0
          0     0     0     0     0     0     0     0     0     0     0     0     0     0     0     0
 123      0     0     0     0     0     1     1     1     1     1     1     1     1     1     1     1     1     1     1     1
          1     1     1     1     1     1     1     1     1     1     1     1     1     0     0     0     0     0     0     0
          0     0     0     0     0     0     0     0     0     0     0     0     0     0     0     0     0     0     0     0
          0     0     0     0     0     0     0     0     0     0     0     0     0     0     0     0
 124      0     0     0     0     1     1     1     1     1     1     1     1     1     1     1     1     1     1     1     1
          1     1     1     1     1     1     1     1     1     0     0     0     0     0     0     0     0     0     0     0
          0     0     0     0     0     0     0     0     0     0     0     0     0     0     0     0     0     0     0     0
          0     0     0     0     0     0     0     0     0     0     0     0     0     0     0     0
 125      0     0     0     1     1     1     1     1     1     1     1     1     1     1     1     1     1     1     1     1
          1     1     1     1     1     1     0     0     0     0     0     0     0     0     0     0     0     0     0     0
          0     0     0     0     0     0     0     0     0     0     0     0     0     0     0     0     0     0     0     0
          0     0     0     0     0     0     0     0     0     0     0     0     0     0     0     0
 126      0     0     1     1     1     1     1     1     1     1     1     1     1     1     1     1     1     1     1     1
          1     1     1     1     0     0     0     0     0     0     0     0     0     0     0     0     0     0     0     0
          0     0     0     0     0     0     0     0     0     0     0     0     0     0     0     0     0     0     0     0
          0     0     0     0     0     0     0     0     0     0     0     0     0     0     0     0
 127      0     0     1     1     1     1     1     1     1     1     1     1     1     1     1     1     1     1     1     1
          1     1     0     0     0     0     0     0     0     0     0     0     0     0     0     0     0     0     0     0
          0     0     0     0     0     0     0     0     0     0     0     0     0     0     0     0     0     0     0     0
          0     0     0     0     0     0     0     0     0     0     0     0     0     0     0     0
 128      0     1     1     1     1     1     1     1     1     1     1     1     1     1     1     1     1     1     0     0
          0     0     0     0     0     0     0     0     0     0     0     0     0     0     0     0     0     0     0     0
          0     0     0     0     0     0     0     0     0     0     0     0     0     0     0     0     0     0     0     0
          0     0     0     0     0     0     0     0     0     0     0     0     0     0     0     0
 129      1     1     1     1     1     1     1     1     1     1     1     1     1     0     0     0     0     0     0     0
          0     0     0     0     0     0     0     0     0     0     0     0     0     0     0     0     0     0     0     0
          0     0     0     0     0     0     0     0     0     0     0     0     0     0     0     0     0     0     0     0
          0     0     0     0     0     0     0     0     0     0     0     0     0     0     0     0
 130      1     1     1     1     0     0     0     0     0     0     0     0     0     0     0     0     0     0     0     0
          0     0     0     0     0     0     0     0     0     0     0     0     0     0     0     0     0     0     0     0
          0     0     0     0     0     0     0     0     0     0     0     0     0     0     0     0     0     0     0     0
          0     0     0     0     0     0     0     0     0     0     0     0     0     0     0     0
 131      0     1     1     1     0     0     0     0     0     0     0     0     0     0     0     0     0     0     0     0
          0     0     0     0     0     0     0     0     0     0     0     0     0     0     0     0     0     0     0     0
          0     0     0     0     0     0     0     0     0     0     0     0     0     0     0     0     0     0     0     0
          0     0     0     0     0     0     0     0     0     0     0     0     0     0     0     0

 AQUIFER HEAD WILL BE SET TO -2.00000E+20 AT ALL NO-FLOW NODES (IBOUND=0).



                       INITIAL HEAD FOR LAYER   1
 READING ON UNIT 5013 WITH FORMAT: (FREE)              

            1           2           3           4           5           6           7           8           9          10
           11          12          13          14          15          16          17          18          19          20
           21          22          23          24          25          26          27          28          29          30
           31          32          33          34          35          36          37          38          39          40
           41          42          43          44          45          46          47          48          49          50
           51          52          53          54          55          56          57          58          59          60
           61          62          63          64          65          66          67          68          69          70
           71          72          73          74          75          76
 ........................................................................................................................
   1  -3.0605E+04 -3.0048E+04 -2.8999E+04 -2.7388E+04 -2.5139E+04 -2.2172E+04 -1.8401E+04 -1.3734E+04  -8073.      -1884.    
        4198.       4616.       4903.       4829.       4763.       4708.       4665.       4633.       4609.       4593.    
        4586.       4584.       4589.       4599.       4614.       4631.       4652.       4675.       4698.       4722.    
        4745.       4766.       4785.       4801.       4813.       4820.       4822.       4817.       4805.       4785.    
        4756.       4717.       4668.       4607.       4534.       4448.       4348.       4234.       4104.       3958.    
        3795.       3614.       3421.       3618.       3879.       4016.       3961.       3812.       3606.       3382.    
        3175.       3023.       2963.       3032.       3267.       3600.       3568.       3378.       3543.       3555.    
        3610.       3652.       3819.       3739.       3843.       3795.    
   2  -2.8321E+04 -2.8334E+04 -2.7942E+04 -2.7079E+04 -2.5673E+04 -2.3647E+04 -2.0919E+04 -1.7397E+04 -1.2988E+04  -7590.    
       -1665.       4153.       4557.       4830.       4756.       4691.       4637.       4594.       4562.       4538.    
        4523.       4515.       4515.       4520.       4530.       4544.       4562.       4583.       4605.       4629.    
        4652.       4675.       4696.       4714.       4730.       4741.       4748.       4749.       4744.       4731.    
        4711.       4681.       4642.       4592.       4530.       4457.       4370.       4269.       4154.       4024.    
        3876.       3712.       3530.       3443.       3564.       3668.       3743.       3881.       3864.       3823.    
        3579.       3185.       2970.       3022.       3295.       3677.       3603.       3508.       3722.       3711.    
        3673.       3595.       3749.       3948.       3949.       3869.    
   3  -2.5479E+04 -2.5943E+04 -2.6089E+04 -2.5854E+04 -2.5171E+04 -2.3966E+04 -2.2160E+04 -1.9666E+04 -1.6393E+04 -1.2243E+04
       -7108.      -1446.       4108.       4498.       4758.       4684.       4619.       4565.       4524.       4491.    
        4468.       4453.       4445.       4445.       4450.       4460.       4474.       4492.       4513.       4536.    
        4559.       4582.       4604.       4625.       4644.       4659.       4670.       4676.       4677.       4671.    
        4658.       4637.       4607.       4566.       4516.       4454.       4379.       4292.       4190.       4074.    
        3943.       3794.       3629.       3446.       3248.       3487.       3714.       3948.       3802.       3481.    
        3198.       3059.       3114.       3238.       3280.       3776.       3714.       3608.       3837.       3701.    
        3694.       3563.       3767.       3840.       3777.       3815.    
   4  -2.2251E+04 -2.3045E+04 -2.3606E+04 -2.3874E+04 -2.3788E+04 -2.3277E+04 -2.2267E+04 -2.0676E+04 -1.8416E+04 -1.5391E+04
      -1.1497E+04  -6625.      -1227.       4063.       4440.       4685.       4611.       4547.       4494.       4452.    
        4420.       4397.       4382.       4375.       4375.       4380.       4390.       4405.       4423.       4444.    
        4466.       4489.       4512.       4534.       4555.       4573.       4588.       4598.       4604.       4605.    
        4598.       4585.       4563.       4532.       4491.       4440.       4377.       4302.       4213.       4112.    
        3994.       3862.       3698.       3574.       3390.       3673.       3667.       3895.       3775.       3425.    
        3180.       3274.       3338.       3499.       3424.       3786.       3832.       3740.       3685.       3666.    
        3538.       3488.       3457.       3718.       3838.       3697.    
   5  -1.8820E+04 -1.9821E+04 -2.0670E+04 -2.1313E+04 -2.1693E+04 -2.1745E+04 -2.1399E+04 -2.0578E+04 -1.9198E+04 -1.7168E+04
      -1.4388E+04 -1.0752E+04  -6143.      -1008.       4018.       4381.       4613.       4539.       4475.       4423.    
        4381.       4349.       4327.       4312.       4305.       4305.       4310.       4321.       4336.       4354.    
        4374.       4396.       4419.       4442.       4464.       4484.       4502.       4516.       4527.       4532.    
        4532.       4526.       4511.       4489.       4457.       4416.       4364.       4300.       4224.       4136.    
        4032.       3729.       3887.       3655.       3570.       3811.       3818.       3808.       3568.       3366.    
        3322.       3533.       3488.       3602.       3567.       3603.       3755.       3878.       3830.       3689.    
        3717.       3663.       3355.       3664.       3935.       3840.    
   6  -1.5381E+04 -1.6463E+04 -1.7472E+04 -1.8360E+04 -1.9072E+04 -1.9550E+04 -1.9730E+04 -1.9540E+04 -1.8901E+04 -1.7726E+04
      -1.5923E+04 -1.3387E+04 -1.0006E+04  -5660.      -789.4       3974.       4322.       4540.       4467.       4404.    
        4351.       4310.       4279.       4256.       4242.       4235.       4235.       4241.       4251.       4266.    
        4284.       4305.       4326.       4349.       4372.       4393.       4413.       4431.       4445.       4455.    
        4460.       4460.       4453.       4438.       4415.       4383.       4341.       4288.       4223.       4147.    
        3748.       3854.       3873.       3668.       3725.       3872.       3872.       3663.       3458.       3401.    
        3553.       3730.       3595.       3609.       3494.       3488.       3713.       3849.       3876.       3745.    
        3738.       3562.       3360.       3527.       3805.       3833.    
   7  -1.2142E+04 -1.3180E+04 -1.4219E+04 -1.5217E+04 -1.6124E+04 -1.6889E+04 -1.7451E+04 -1.7746E+04 -1.7701E+04 -1.7236E+04
      -1.6262E+04 -1.4681E+04 -1.2387E+04  -9261.      -5177.      -570.5       3929.       4264.       4468.       4395.    
        4332.       4280.       4239.       4208.       4186.       4172.       4165.       4165.       4171.       4182.    
        4197.       4215.       4235.       4257.       4279.       4301.       4323.       4343.       4360.       4374.    
        4384.       4389.       4387.       4380.       4364.       4341.       4308.       4265.       4212.       3880.    
        3902.       3839.       3876.       3775.       3837.       3894.       3764.       3506.       3329.       3475.    
        3650.       3502.       3483.       3378.       3334.       3502.       3822.       3718.       3778.       3792.    
        3759.       3656.       3296.       3481.       3839.       3902.    
   8   -9320.     -1.0189E+04 -1.1129E+04 -1.2103E+04 -1.3067E+04 -1.3974E+04 -1.4772E+04 -1.5402E+04 -1.5799E+04 -1.5887E+04
      -1.5586E+04 -1.4805E+04 -1.3443E+04 -1.1387E+04  -8516.      -4694.      -351.6       3884.       4205.       4396.    
        4322.       4260.       4208.       4168.       4137.       4115.       4101.       4095.       4096.       4102.    
        4113.       4127.       4145.       4165.       4187.       4209.       4231.       4253.       4272.       4289.    
        4303.       4312.       4317.       4315.       4307.       4291.       4267.       4233.       3815.       3542.    
        3635.       3766.       3903.       3876.       3914.       3712.       3438.       3264.       3367.       3553.    
        3742.       3513.       3240.       3282.       3288.       3505.       3774.       3773.       3588.       3525.    
        3703.       3568.       3273.       3756.       3783.       3988.    
   9   -7147.      -7723.      -8434.      -9249.     -1.0131E+04 -1.1037E+04 -1.1921E+04 -1.2733E+04 -1.3412E+04 -1.3893E+04
      -1.4102E+04 -1.3954E+04 -1.3358E+04 -1.2209E+04 -1.0390E+04  -7771.      -4212.      -132.7       3839.       4147.    
        4323.       4250.       4188.       4137.       4097.       4066.       4045.       4031.       4026.       4026.    
        4032.       4043.       4057.       4075.       4095.       4117.       4139.       4161.       4182.       4202.    
        4218.       4232.       4241.       4245.       4243.       4234.       4217.       3743.       3540.       3157.    
        3205.       3390.       3856.       3897.       3781.       3651.       3417.       3162.       3388.       3682.    
        3646.       3404.       3168.       3515.       3431.       3604.       3870.       3753.       3499.       3280.    
        3277.       3151.       3316.       3818.       3969.       3907.    
  10   -5860.      -6022.      -6379.      -6903.      -7563.      -8324.      -9145.      -9981.     -1.0782E+04 -1.1489E+04
      -1.2037E+04 -1.2350E+04 -1.2344E+04 -1.1923E+04 -1.0981E+04  -9394.      -7027.      -3729.       86.17       3794.    
        4088.       4251.       4178.       4116.       4066.       4026.       3995.       3974.       3961.       3956.    
        3957.       3962.       3973.       3988.       4006.       4026.       4047.       4069.       4091.       4112.    
        4131.       4148.       4161.       4169.       4173.       4170.       3676.       3499.       3315.       3195.    
        3143.       3276.       3575.       3761.       3748.       3694.       3479.       3137.       3421.       3624.    
        3497.       3186.       3292.       3679.       3530.       3729.       3677.       3494.       3430.       3601.    
        3439.       3041.       3482.       3842.       3911.       3740.    
  11   -5172.      -5196.      -5218.      -5324.      -5627.      -6099.      -6707.      -7412.      -8172.      -8936.    
       -9646.     -1.0239E+04 -1.0638E+04 -1.0758E+04 -1.0502E+04  -9759.      -8399.      -6282.      -3246.       305.2    
        3750.       4029.       4178.       4106.       4044.       3994.       3955.       3925.       3904.       3892.    
        3886.       3887.       3893.       3903.       3918.       3936.       3956.       3977.       3999.       4021.    
        4042.       4061.       4077.       4089.       4098.       3615.       3616.       3318.       3252.       3510.    
        3274.       3513.       3681.       3459.       3348.       3298.       3260.       3120.       3383.       3612.    
        3369.       3098.       3328.       3734.       3836.       3815.       3854.       3782.       3766.       3534.    
        3096.       3038.       3430.       3610.       3833.       3796.    
  12   -4520.      -4540.      -4557.      -4571.      -4583.      -4640.      -4889.      -5309.      -5865.      -6515.    
       -7211.      -7897.      -8510.      -8974.      -9203.      -9099.      -8544.      -7408.      -5538.      -2764.    
        524.5       3705.       3971.       4105.       4033.       3972.       3923.       3884.       3854.       3834.    
        3822.       3816.       3817.       3823.       3834.       3849.       3866.       3886.       3908.       3929.    
        3951.       3972.       3990.       4006.       3558.       3437.       3642.       3524.       3398.       3694.    
        3455.       3803.       3625.       3439.       3335.       3264.       3139.       3120.       3453.       3541.    
        3263.       3056.       3344.       3704.       3766.       3656.       3852.       3804.       3647.       3250.    
        2953.       3161.       3302.       3410.       3795.       3897.    
  13   -3903.      -3919.      -3931.      -3941.      -3947.      -3951.      -3952.      -3972.      -4166.      -4534.    
       -5038.      -5632.      -6261.      -6865.      -7368.      -7686.      -7716.      -7340.      -6420.      -4795.    
       -2281.       743.4       3660.       3912.       4033.       3961.       3901.       3851.       3813.       3784.    
        3764.       3752.       3746.       3747.       3753.       3764.       3779.       3797.       3817.       3838.    
        3860.       3881.       3901.       3502.       3180.       3326.       3481.       3772.       3624.       3895.    
        3830.       3752.       3675.       3661.       3503.       3531.       3176.       3118.       3549.       3552.    
        3196.       3007.       3246.       3635.       3582.       3511.       3698.       3494.       3276.       2984.    
        3151.       3182.       3603.       3541.       3753.       3860.    
  14   -3320.      -3332.      -3340.      -3346.      -3348.      -3347.      -3343.      -3336.      -3326.      -3320.    
       -3458.      -3774.      -4225.      -4761.      -5322.      -5835.      -6215.      -6360.      -6148.      -5436.    
       -4052.      -1798.       962.3       3615.       3853.       3960.       3889.       3829.       3780.       3742.    
        3714.       3694.       3681.       3676.       3677.       3684.       3695.       3709.       3727.       3747.    
        3768.       3790.       3449.       3177.       3083.       3238.       3467.       3808.       3872.       3811.    
        3725.       3666.       3526.       3738.       3529.       3349.       3197.       2985.       3204.       3367.    
        3337.       2998.       3141.       3438.       3203.       3233.       3268.       3092.       2951.       3234.    
        3490.       3482.       3446.       3743.       3718.       3809.    
  15   -2770.      -2778.      -2783.      -2784.      -2782.      -2777.      -2769.      -2757.      -2743.      -2725.    
       -2706.      -2683.      -2764.      -3028.      -3427.      -3904.      -4390.      -4802.      -5037.      -4972.    
       -4457.      -3309.      -1315.       1181.       3570.       3794.       3888.       3817.       3757.       3709.    
        3672.       3643.       3623.       3611.       3606.       3608.       3614.       3625.       3640.       3658.    
        3678.       3404.       3373.       3346.       3176.       3129.       3450.       3830.       3917.       3736.    
        3575.       3340.       3156.       3304.       3181.       2984.       2996.       2974.       2910.       2993.    
        3279.       3096.       2929.       2975.       2890.       2915.       2998.       3080.       3077.       3424.    
        3789.       3818.       3636.       3670.       3758.       3844.    
  16   -2251.      -2256.      -2258.      -2256.      -2250.      -2241.      -2229.      -2213.      -2194.      -2172.    
       -2148.      -2120.      -2090.      -2057.      -2085.      -2296.      -2642.      -3059.      -3464.      -3759.    
       -3818.      -3484.      -2568.      -832.5       1400.       3525.       3736.       3815.       3745.       3686.    
        3639.       3601.       3573.       3553.       3541.       3537.       3538.       3545.       3556.       3571.    
        3371.       3612.       3638.       3498.       3576.       3338.       3480.       3889.       3941.       3844.    
        3682.       3202.       3167.       3069.       3079.       3320.       3453.       3347.       3047.       2933.    
        2913.       2864.       2808.       2924.       3100.       3176.       3174.       3521.       3314.       3126.    
        3502.       3830.       3732.       3603.       3857.       3792.    
  17   -1762.      -1765.      -1764.      -1759.      -1751.      -1738.      -1722.      -1703.      -1680.      -1654.    
       -1625.      -1593.      -1558.      -1520.      -1478.      -1435.      -1421.      -1580.      -1872.      -2224.    
       -2539.      -2691.      -2523.      -1828.      -349.8       1619.       3480.       3677.       3743.       3673.    
        3615.       3568.       3530.       3502.       3483.       3471.       3467.       3469.       3475.       3360.    
        3501.       3472.       3724.       3861.       3883.       3646.       3643.       3822.       3774.       3555.    
        3305.       3252.       3546.       3440.       3393.       3594.       3595.       3228.       3348.       3272.    
        2999.       2797.       2970.       3274.       3419.       3470.       3240.       3677.       3685.       3185.    
        3456.       3791.       3767.       3635.       3835.       3792.    
  18   -1303.      -1304.      -1301.      -1293.      -1282.      -1267.      -1248.      -1226.      -1199.      -1170.    
       -1136.      -1100.      -1061.      -1018.      -972.3      -923.5      -871.8      -817.4      -772.4      -877.2    
       -1116.      -1399.      -1606.      -1575.      -1090.       132.9       1838.       3436.       3618.       3671.    
        3602.       3544.       3496.       3460.       3432.       3413.       3402.       3398.       3375.       3314.    
        3300.       3374.       3477.       3689.       3945.       3816.       3770.       3634.       3484.       3293.    
        3412.       3546.       3599.       3560.       3700.       3679.       3426.       3499.       3707.       3563.    
        3285.       2843.       3195.       3651.       3734.       3698.       3598.       3805.       3732.       3261.    
        3639.       3816.       3787.       3781.       3720.       3713.    
  19   -871.6      -871.2      -866.5      -857.4      -844.1      -826.7      -805.2      -779.8      -750.6      -717.6    
       -681.1      -641.0      -598.0      -551.4      -501.2      -447.9      -391.5      -332.2      -269.9      -204.8    
       -138.5      -189.4      -373.7      -579.9      -649.0      -355.8       615.6       2057.       3391.       3560.    
        3599.       3530.       3472.       3426.       3389.       3362.       3343.       3432.       3210.       3335.    
        3314.       3407.       3574.       3825.       3804.       3586.       3788.       3739.       3584.       3428.    
        3733.       3814.       3692.       3637.       3744.       3572.       3385.       3551.       3808.       3588.    
        3227.       2917.       3278.       3558.       3702.       3862.       3793.       3846.       3637.       3288.    
        3748.       3791.       3861.       3803.       3763.       3556.    
  20   -467.7      -466.4      -460.5      -450.0      -435.0      -415.8      -392.3      -364.6      -332.9      -297.2    
       -257.7      -214.6      -167.9      -118.0      -64.01      -6.688       53.90       117.7       184.5       254.6    
        327.3       402.9       481.6       483.8       355.5       242.5       373.2       1098.       2276.       3347.    
        3503.       3527.       3458.       3401.       3355.       3319.       3284.       3297.       3454.       3286.    
        3282.       3362.       3500.       3726.       3874.       3462.       3801.       3877.       3639.       3575.    
        3846.       3602.       3539.       3530.       3609.       3640.       3485.       3696.       3786.       3636.    
        3201.       2921.       3150.       3465.       3663.       3804.       3850.       3752.       3510.       3383.    
        3739.       3814.       3694.       3749.       3771.       3714.    
  21   -90.01      -88.20      -81.54      -70.12      -54.05      -33.43      -8.342       21.11       54.82       92.71    
        134.7       180.5       230.2       283.1       340.3       401.1       465.5       533.2       604.2       678.6    
        756.0       836.3       920.1       1006.       1095.       1142.       1074.       1092.       1581.       2495.    
        3303.       3444.       3455.       3387.       3330.       3283.       3393.       3454.       3391.       3244.    
        3278.       3415.       3549.       3777.       3664.       3439.       3640.       3710.       3689.       3646.    
        3533.       3362.       3236.       3285.       3410.       3376.       3534.       3713.       3585.       3342.    
        3129.       2913.       3229.       3384.       3491.       3740.       3880.       3709.       3607.       3477.    
        3671.       3746.       3622.       3663.       3842.       3847.    
  22    262.7       264.5       271.4       283.2       299.9       321.4       347.6       378.4       413.6       453.2    
        497.2       545.3       597.3       653.1       712.8       776.7       844.3       915.5       990.2       1068.    
        1150.       1235.       1323.       1414.       1508.       1604.       1704.       1786.       1788.       2064.    
        2716.       3259.       3386.       3383.       3277.       3194.       3171.       3428.       3451.       3285.    
        3338.       3452.       3590.       3683.       3505.       3298.       3483.       3634.       3711.       3665.    
        3623.       3506.       3283.       3167.       3304.       3302.       3476.       3493.       3425.       3252.    
        3116.       2911.       3339.       3508.       3639.       3708.       3889.       3802.       3671.       3643.    
        3685.       3646.       3556.       3475.       3627.       3822.    
  23    591.3       592.7       599.3       611.1       628.0       649.9       676.7       708.3       744.6       785.5    
        830.9       880.6       934.7       992.8       1055.       1121.       1191.       1266.       1343.       1425.    
        1510.       1599.       1691.       1787.       1885.       1986.       2090.       2198.       2308.       2416.    
        2549.       2935.       3214.       3393.       3423.       3305.       3260.       3312.       3420.       3320.    
        3333.       3413.       3569.       3463.       3384.       3148.       3530.       3675.       3566.       3638.    
        3598.       3628.       3377.       3115.       3209.       3362.       3360.       3321.       3252.       3188.    
        3178.       2902.       3314.       3536.       3613.       3712.       3805.       3836.       3704.       3724.    
        3809.       3737.       3586.       3489.       3477.       3755.    
  24    897.1       897.5       903.4       914.6       931.2       953.1       980.0       1012.       1049.       1090.    
        1137.       1188.       1243.       1303.       1367.       1435.       1508.       1585.       1665.       1750.    
        1838.       1930.       2026.       2125.       2228.       2333.       2442.       2554.       2669.       2787.    
        2908.       3032.       3091.       3215.       3449.       3419.       3398.       3455.       3483.       3436.    
        3397.       3449.       3581.       3482.       3178.       3139.       3346.       3379.       3421.       3638.    
        3452.       3522.       3326.       3084.       3226.       3243.       3226.       3279.       3240.       3119.    
        3065.       2873.       3179.       3403.       3597.       3681.       3760.       3783.       3692.       3752.    
        3799.       3757.       3669.       3535.       3480.       3679.    
  25    1181.       1180.       1185.       1195.       1211.       1232.       1259.       1290.       1327.       1369.    
        1416.       1468.       1524.       1585.       1651.       1720.       1795.       1874.       1956.       2043.    
        2134.       2229.       2328.       2431.       2537.       2646.       2759.       2875.       2994.       3117.    
        3244.       3405.       3408.       3270.       3435.       3482.       3503.       3560.       3417.       3293.    
        3269.       3478.       3460.       3332.       3137.       3052.       3118.       3226.       3392.       3557.    
        3417.       3317.       3207.       3026.       3101.       3166.       3233.       3278.       3221.       3242.    
        3231.       2820.       3085.       3415.       3729.       3724.       3784.       3679.       3561.       3655.    
        3779.       3788.       3693.       3564.       3652.       3603.    
  26    1444.       1441.       1444.       1453.       1467.       1488.       1513.       1545.       1581.       1623.    
        1670.       1722.       1779.       1840.       1907.       1977.       2053.       2134.       2218.       2307.    
        2400.       2498.       2599.       2705.       2814.       2926.       3043.       3163.       3286.       3413.    
        3544.       3435.       3638.       3420.       3385.       3217.       3308.       3307.       3132.       3141.    
        3342.       3507.       3497.       3279.       3114.       2947.       3225.       3451.       3484.       3465.    
        3380.       3281.       3094.       2976.       3125.       3241.       3351.       3406.       3434.       3533.    
        3397.       2848.       2857.       3020.       3251.       3313.       3477.       3382.       3328.       3611.    
        3762.       3790.       3687.       3685.       3662.       3527.    
  27    1689.       1682.       1683.       1690.       1703.       1721.       1746.       1776.       1811.       1852.    
        1899.       1951.       2008.       2070.       2137.       2208.       2284.       2366.       2452.       2542.    
        2637.       2736.       2840.       2947.       3059.       3175.       3294.       3417.       3544.       3675.    
        3397.       3502.       3640.       3560.       3335.       3108.       3141.       3138.       3016.       3167.    
        3256.       3523.       3524.       3417.       3144.       2946.       3234.       3583.       3647.       3536.    
        3375.       3155.       2969.       2967.       3186.       3353.       3498.       3593.       3687.       3607.    
        3179.       2790.       2937.       3110.       3008.       3019.       3110.       3280.       3336.       3447.    
        3717.       3778.       3761.       3762.       3599.       3458.    
  28    1914.       1906.       1902.       1906.       1917.       1934.       1956.       1985.       2019.       2059.    
        2105.       2156.       2212.       2274.       2341.       2413.       2489.       2571.       2658.       2749.    
        2845.       2946.       3051.       3161.       3275.       3393.       3515.       3640.       3770.       3904.    
        3351.       3513.       3435.       3412.       3325.       3070.       2991.       2969.       2973.       3077.    
        3271.       3548.       3532.       3291.       3095.       2904.       3145.       3323.       3420.       3322.    
        3193.       3171.       2976.       3011.       3259.       3427.       3567.       3710.       3740.       3467.    
        3034.       2839.       3235.       3392.       3517.       3283.       3495.       3623.       3715.       3424.    
        3629.       3749.       3748.       3582.       3436.       3467.    
  29    2122.       2110.       2105.       2105.       2112.       2126.       2147.       2173.       2205.       2244.    
        2288.       2338.       2393.       2454.       2521.       2592.       2668.       2750.       2837.       2929.    
        3026.       3128.       3234.       3345.       3461.       3581.       3705.       3833.       3965.       3268.    
        3327.       3205.       3236.       3236.       3227.       3122.       2972.       2889.       3074.       3163.    
        3283.       3548.       3640.       3448.       3114.       2906.       2927.       3104.       3187.       3030.    
        3142.       3322.       2973.       2970.       3231.       3427.       3569.       3683.       3714.       3387.    
        2962.       2906.       3519.       3583.       3787.       3564.       3652.       3779.       3818.       3717.    
        3894.       3871.       3795.       3640.       3550.       3583.    
  30    2312.       2297.       2288.       2286.       2289.       2300.       2317.       2341.       2371.       2408.    
        2450.       2498.       2552.       2612.       2677.       2748.       2824.       2905.       2992.       3084.    
        3181.       3283.       3390.       3502.       3619.       3740.       3866.       3996.       4130.       3100.    
        2928.       3011.       3063.       3093.       3116.       3019.       2909.       2922.       3070.       3154.    
        3204.       3381.       3441.       3376.       3241.       3075.       2781.       2970.       2941.       2894.    
        3135.       3369.       2983.       3056.       3414.       3426.       3570.       3654.       3391.       3153.    
        2847.       2853.       3439.       3816.       3875.       3878.       3708.       3766.       3845.       3872.    
        3877.       3733.       3766.       3774.       3671.       3705.    
  31    2487.       2468.       2455.       2449.       2450.       2456.       2470.       2491.       2518.       2552.    
        2592.       2638.       2690.       2748.       2812.       2881.       2956.       3036.       3123.       3214.    
        3311.       3413.       3521.       3633.       3750.       3873.       3999.       4131.       3139.       2821.    
        2825.       2888.       2989.       3052.       3100.       2944.       2838.       2885.       3051.       3030.    
        3077.       3211.       3234.       3346.       3282.       3113.       2799.       2766.       2808.       2799.    
        2996.       3192.       2883.       3319.       3715.       3575.       3589.       3661.       3281.       2752.    
        2715.       2967.       3309.       3481.       3511.       3677.       3836.       3900.       3835.       3685.    
        3755.       3581.       3605.       3713.       3843.       3787.    
  32    2647.       2623.       2607.       2596.       2593.       2596.       2606.       2623.       2647.       2677.    
        2714.       2758.       2807.       2863.       2925.       2993.       3066.       3145.       3230.       3321.    
        3417.       3519.       3626.       3738.       3856.       3978.       4106.       4238.       2948.       2907.    
        2949.       2985.       3145.       3120.       3122.       3014.       2836.       2820.       2943.       2931.    
        3054.       3065.       3154.       3219.       3167.       3180.       2996.       2682.       2692.       2796.    
        2902.       2920.       2924.       3446.       3796.       3614.       3360.       3379.       2838.       2738.    
        3037.       3228.       3304.       3379.       3468.       3385.       3473.       3583.       3791.       3754.    
        3469.       3401.       3317.       3482.       3957.       3832.    
  33    2795.       2765.       2743.       2729.       2721.       2720.       2726.       2738.       2758.       2785.    
        2819.       2859.       2906.       2959.       3018.       3084.       3155.       3233.       3316.       3405.    
        3500.       3601.       3707.       3819.       3936.       4059.       4186.       3006.       3049.       3057.    
        3079.       3198.       3212.       3057.       3023.       2958.       2821.       2740.       2778.       2815.    
        2885.       2969.       3083.       3029.       3016.       3050.       3061.       2698.       2632.       2708.    
        2853.       2854.       3102.       3589.       3693.       3709.       3247.       3005.       2677.       2865.    
        3125.       3201.       3340.       3727.       3776.       3716.       3759.       3808.       3861.       3806.    
        3756.       3456.       3223.       3446.       3807.       3842.    
  34    2930.       2895.       2867.       2847.       2834.       2829.       2831.       2839.       2854.       2876.    
        2906.       2943.       2986.       3036.       3093.       3155.       3225.       3300.       3380.       3468.    
        3561.       3661.       3766.       3876.       3993.       4115.       4242.       2881.       2944.       3171.    
        3217.       3177.       3054.       3055.       2914.       2912.       2725.       2765.       2836.       2844.    
        2848.       2867.       2863.       2881.       2915.       2968.       2930.       2658.       2563.       2662.    
        2849.       2805.       3210.       3435.       3699.       3562.       3086.       2636.       2780.       3131.    
        3516.       3604.       3396.       3372.       3691.       3875.       3906.       3844.       3662.       3570.    
        3779.       3607.       3313.       3666.       3792.       3821.    
  35    2963.       2988.       2979.       2953.       2934.       2924.       2921.       2925.       2935.       2953.    
        2978.       3010.       3050.       3096.       3149.       3209.       3275.       3347.       3426.       3510.    
        3602.       3699.       3802.       3911.       4026.       4147.       4274.       2985.       3114.       3176.    
        3142.       3089.       2964.       2980.       2888.       2806.       2735.       2924.       2983.       3017.    
        3037.       3046.       3070.       3113.       3090.       2991.       2768.       2655.       2503.       2619.    
        2680.       2759.       3107.       3453.       3577.       3398.       2982.       2573.       2872.       3266.    
        3443.       3469.       3804.       3600.       3364.       3565.       3863.       3874.       3779.       3545.    
        3397.       3590.       3262.       4007.       3750.       3771.    
  36    2826.       2906.       2971.       3012.       3021.       3006.       2998.       2996.       3002.       3015.    
        3035.       3062.       3097.       3139.       3189.       3244.       3307.       3376.       3452.       3534.    
        3622.       3717.       3818.       3925.       4039.       4158.       3178.       3105.       3172.       3061.    
        2980.       2974.       2968.       2850.       2864.       2743.       2732.       2823.       2914.       2986.    
        3117.       3177.       3146.       3189.       3191.       3124.       2764.       2738.       2583.       2875.    
        2970.       3037.       3118.       3067.       3085.       3035.       2642.       2627.       2950.       3412.    
        3726.       3849.       3658.       3786.       3600.       3630.       3794.       3689.       3663.       3546.    
        3484.       3638.       3150.       3854.       3683.       3695.    
  37    2630.       2722.       2813.       2899.       2973.       3029.       3057.       3055.       3056.       3064.    
        3078.       3101.       3130.       3168.       3212.       3264.       3323.       3388.       3461.       3539.    
        3624.       3716.       3815.       3919.       4030.       4148.       3101.       3208.       3172.       2994.    
        2886.       2872.       2859.       2800.       2750.       2692.       2785.       2917.       2994.       3045.    
        3144.       3138.       3111.       3110.       3155.       2944.       2701.       2751.       2597.       2868.    
        2996.       2813.       2570.       2561.       2599.       2607.       2596.       2692.       2975.       3346.    
        3612.       3797.       3844.       3971.       3861.       3921.       3788.       3604.       3364.       3181.    
        3423.       3543.       3157.       3596.       3593.       3597.    
  38    2493.       2558.       2632.       2715.       2803.       2891.       2973.       3041.       3086.       3099.    
        3109.       3126.       3151.       3182.       3222.       3269.       3323.       3384.       3452.       3527.    
        3609.       3697.       3793.       3894.       4003.       3060.       3096.       3199.       3180.       3070.    
        2983.       2924.       2782.       2782.       2724.       2701.       2855.       2921.       2920.       2974.    
        3094.       3216.       3172.       3091.       2963.       2719.       2684.       2756.       2649.       2539.    
        2561.       2470.       2691.       2769.       2796.       2830.       3028.       3074.       2890.       3112.    
        3459.       3589.       3880.       3942.       3768.       4027.       3939.       3804.       3686.       2925.    
        3182.       3315.       3495.       3497.       3485.       3479.    
  39    2406.       2465.       2527.       2590.       2654.       2723.       2802.       2887.       2972.       3049.    
        3109.       3139.       3157.       3184.       3217.       3259.       3308.       3365.       3429.       3500.    
        3577.       3661.       3753.       3851.       3956.       3062.       3146.       3246.       3168.       2963.    
        2936.       2911.       2813.       2697.       2642.       2764.       2815.       2856.       2977.       3084.    
        3184.       3175.       3169.       3183.       2923.       2673.       2628.       2628.       2606.       2430.    
        2620.       2825.       3116.       3281.       3409.       3351.       3461.       3434.       3256.       3050.    
        3307.       3605.       3682.       3482.       3575.       3970.       3815.       3852.       3732.       2776.    
        3017.       3067.       3904.       3383.       3360.       3344.    
  40    2332.       2387.       2444.       2502.       2562.       2623.       2686.       2750.       2817.       2891.    
        2973.       3054.       3126.       3173.       3201.       3237.       3280.       3332.       3391.       3457.    
        3529.       3610.       3697.       3792.       2954.       2988.       3084.       3225.       3114.       2950.    
        2840.       2841.       2796.       2686.       2615.       2710.       2810.       2955.       3046.       3044.    
        3151.       3155.       3106.       3159.       2890.       2640.       2573.       2566.       2467.       2613.    
        2962.       3085.       3204.       3361.       3492.       3606.       3740.       3653.       3505.       3359.    
        3254.       3305.       3357.       3510.       3708.       3840.       3855.       3516.       3792.       2729.    
        3003.       2850.       3405.       3257.       3222.       3194.    
  41    2269.       2320.       2373.       2427.       2482.       2539.       2597.       2657.       2719.       2781.    
        2846.       2913.       2983.       3061.       3137.       3200.       3240.       3286.       3339.       3400.    
        3468.       3543.       3626.       3716.       3141.       3090.       3126.       3242.       3068.       2883.    
        2911.       2821.       2770.       2641.       2661.       2819.       2910.       2975.       2966.       2950.    
        3078.       3113.       3084.       3134.       2838.       2606.       2535.       2559.       2508.       2531.    
        2936.       3198.       3334.       3353.       3459.       3592.       3694.       3771.       3607.       3588.    
        3666.       3738.       3716.       3831.       3765.       3657.       3849.       3526.       3274.       2782.    
        2944.       2874.       3175.       3121.       3074.       3034.    
  42    2216.       2264.       2313.       2363.       2415.       2468.       2522.       2577.       2634.       2693.    
        2752.       2814.       2878.       2942.       3008.       3075.       3149.       3221.       3275.       3330.    
        3393.       3462.       3540.       3176.       3124.       3288.       3261.       3199.       3059.       2990.    
        2868.       2787.       2718.       2644.       2657.       2737.       2862.       2865.       2873.       2918.    
        3010.       3009.       3023.       3093.       2737.       2572.       2544.       2578.       2354.       2584.    
        3043.       3241.       3373.       3432.       3535.       3565.       3663.       3780.       3741.       3694.    
        3706.       3751.       3752.       3753.       3807.       3553.       3542.       3579.       3218.       2931.    
        2909.       3376.       3045.       2978.       2919.       2866.    
  43    2168.       2215.       2262.       2309.       2357.       2407.       2457.       2509.       2562.       2616.    
        2672.       2729.       2788.       2848.       2909.       2972.       3036.       3102.       3168.       3239.    
        3305.       3370.       3441.       3306.       3175.       3329.       3376.       3296.       3264.       3061.    
        2947.       2862.       2755.       2627.       2561.       2799.       2854.       2760.       2829.       2966.    
        2944.       2955.       3056.       3009.       2615.       2542.       2546.       2612.       2385.       2592.    
        2883.       3056.       3182.       3365.       3462.       3537.       3639.       3671.       3740.       3649.    
        3593.       3671.       3608.       3756.       3832.       3802.       3488.       3244.       3135.       3143.    
        2947.       3569.       2913.       2832.       2759.       2692.    
  44    2131.       2172.       2217.       2263.       2309.       2355.       2402.       2450.       2500.       2550.    
        2602.       2655.       2710.       2766.       2824.       2882.       2942.       3003.       3066.       3129.    
        3194.       3262.       3330.       3404.       3314.       3344.       3408.       3288.       3133.       3074.    
        2921.       2877.       2730.       2644.       2517.       2721.       2688.       2806.       2888.       2961.    
        2865.       2957.       3029.       3014.       2579.       2508.       2557.       2613.       2379.       2571.    
        3039.       3204.       3272.       3364.       3468.       3543.       3519.       3620.       3644.       3656.    
        3501.       3616.       3543.       3701.       3700.       3769.       3624.       3463.       3624.       3327.    
        3080.       3255.       2780.       2685.       2597.       2517.    
  45    2101.       2140.       2180.       2221.       2266.       2311.       2355.       2400.       2447.       2494.    
        2542.       2592.       2643.       2695.       2749.       2804.       2860.       2917.       2975.       3035.    
        3095.       3157.       3166.       3323.       3398.       3376.       3319.       3057.       2916.       2936.    
        2940.       2869.       2837.       2736.       2478.       2602.       2747.       2844.       2867.       2972.    
        2821.       2842.       2943.       2975.       2603.       2479.       2528.       2554.       2373.       2737.    
        3021.       3170.       3295.       3437.       3396.       3388.       3487.       3608.       3561.       3596.    
        3434.       3575.       3495.       3616.       3610.       3664.       3683.       3800.       3687.       3450.    
        3227.       2769.       2650.       2540.       2437.       2342.    
  46    2077.       2114.       2151.       2190.       2229.       2270.       2315.       2358.       2401.       2446.    
        2491.       2538.       2585.       2634.       2684.       2735.       2788.       2841.       2896.       2951.    
        3009.       3066.       3163.       3233.       3369.       3455.       3279.       3073.       2850.       2762.    
        2827.       2819.       2761.       2749.       2461.       2567.       2719.       2769.       2869.       2866.    
        2771.       2892.       3015.       2972.       2592.       2483.       2482.       2457.       2397.       2863.    
        2987.       3094.       3236.       3322.       3214.       3282.       3500.       3569.       3473.       3482.    
        3393.       3574.       3456.       3537.       3548.       3568.       3751.       3832.       3527.       3422.    
        3102.       2661.       2527.       2400.       2281.       2170.    
  47    2059.       2093.       2128.       2164.       2201.       2239.       2278.       2320.       2363.       2405.    
        2447.       2491.       2535.       2581.       2628.       2676.       2725.       2776.       2827.       2879.    
        2932.       2987.       2863.       3079.       3272.       3502.       3321.       3026.       2849.       2756.    
        2660.       2611.       2567.       2562.       2466.       2400.       2531.       2690.       2805.       2656.    
        2703.       2881.       2973.       2908.       2505.       2440.       2412.       2394.       2386.       2700.    
        2888.       3065.       3132.       3175.       3123.       3283.       3460.       3516.       3396.       3357.    
        3519.       3547.       3349.       3330.       3409.       3586.       3710.       3816.       3504.       3230.    
        3037.       2563.       2412.       2268.       2133.       2006.    
  48    2045.       2077.       2109.       2143.       2178.       2214.       2250.       2288.       2327.       2368.    
        2410.       2451.       2493.       2536.       2580.       2624.       2670.       2718.       2766.       2815.    
        2865.       2950.       3014.       3032.       3359.       3492.       3293.       3104.       2894.       2796.    
        2657.       2631.       2634.       2560.       2581.       2537.       2380.       2579.       2610.       2566.    
        2784.       2849.       2948.       2813.       2427.       2382.       2375.       2319.       2486.       2666.    
        2787.       2892.       2975.       3007.       3174.       3314.       3451.       3384.       3289.       3424.    
        3545.       3416.       3271.       3420.       3610.       3609.       3679.       3583.       3354.       2984.    
        2737.       2478.       2308.       2148.       1995.       1851.    
  49    2034.       2065.       2096.       2127.       2159.       2193.       2227.       2263.       2299.       2336.    
        2375.       2416.       2456.       2496.       2538.       2580.       2623.       2667.       2713.       2759.    
        2807.       2977.       3145.       3035.       3320.       3527.       3333.       3202.       2997.       2859.    
        2664.       2800.       2688.       2711.       2756.       2590.       2401.       2388.       2429.       2533.    
        2775.       2860.       2930.       2821.       2422.       2308.       2303.       2302.       2479.       2760.    
        2947.       2964.       3057.       3116.       3227.       3424.       3406.       3244.       3244.       3281.    
        3278.       3299.       3523.       3643.       3567.       3408.       3519.       3240.       3169.       2807.    
        2605.       2408.       2220.       2041.       1871.       1709.    
  50    2026.       2055.       2085.       2115.       2145.       2176.       2209.       2242.       2276.       2311.    
        2347.       2383.       2423.       2463.       2502.       2541.       2582.       2624.       2666.       2709.    
        2755.       2986.       3388.       3094.       3378.       3450.       3144.       2970.       2848.       2774.    
        2816.       2846.       2784.       2756.       2698.       2639.       2612.       2377.       2320.       2556.    
        2687.       2858.       2874.       2751.       2358.       2257.       2250.       2327.       2517.       2758.    
        2948.       3115.       3210.       3296.       3405.       3440.       3303.       3140.       3046.       3059.    
        3301.       3480.       3592.       3687.       3548.       3415.       3179.       3171.       2921.       2836.    
        2562.       2364.       2163.       1959.       1763.       1583.    
  51    2022.       2049.       2077.       2105.       2134.       2163.       2194.       2225.       2257.       2290.    
        2324.       2358.       2393.       2430.       2469.       2508.       2546.       2585.       2625.       2666.    
        2707.       2914.       3328.       3159.       3458.       3517.       3341.       3153.       3109.       2953.    
        2967.       2938.       2759.       2663.       2584.       2526.       2493.       2502.       2348.       2380.    
        2572.       2707.       2801.       2654.       2288.       2220.       2236.       2347.       2551.       2749.    
        2881.       2980.       3136.       3295.       3411.       3310.       3157.       3010.       2926.       3312.    
        3481.       3544.       3624.       3641.       3448.       3336.       3245.       3101.       2878.       2687.    
        2519.       2324.       2128.       1928.       1727.       1523.    
  52    2020.       2045.       2071.       2098.       2126.       2154.       2182.       2211.       2242.       2273.    
        2305.       2337.       2370.       2404.       2439.       2476.       2514.       2552.       2589.       2628.    
        2761.       2932.       3311.       3321.       3542.       3478.       3457.       3361.       3371.       3212.    
        3022.       2850.       2775.       2773.       2689.       2616.       2681.       2588.       2465.       2282.    
        2430.       2586.       2765.       2546.       2281.       2173.       2210.       2333.       2534.       2758.    
        2909.       3018.       3146.       3326.       3374.       3196.       2985.       2832.       3151.       3293.    
        3416.       3523.       3628.       3519.       3416.       3128.       3177.       2881.       2925.       2662.    
        2474.       2284.       2091.       1896.       1698.       1498.    
  53    2019.       2044.       2069.       2094.       2120.       2147.       2174.       2201.       2229.       2258.    
        2289.       2319.       2350.       2382.       2415.       2448.       2483.       2521.       2558.       2594.    
        2832.       2889.       3443.       3606.       3446.       3257.       3432.       3548.       3355.       3089.    
        3030.       3005.       2985.       2837.       2766.       2767.       2774.       2698.       2514.       2293.    
        2347.       2564.       2743.       2609.       2309.       2117.       2124.       2302.       2509.       2721.    
        2953.       3161.       3259.       3302.       3236.       3021.       2807.       2800.       3191.       3328.    
        3426.       3548.       3562.       3515.       3298.       3144.       2902.       2876.       2713.       2612.    
        2428.       2242.       2054.       1862.       1669.       1473.    
  54    2021.       2044.       2068.       2092.       2116.       2141.       2167.       2193.       2219.       2247.    
        2275.       2304.       2333.       2364.       2394.       2426.       2458.       2491.       2526.       2563.    
        2878.       3218.       3317.       3346.       3154.       3387.       3512.       3347.       3091.       3022.    
        2916.       3083.       3121.       3007.       2897.       2828.       2743.       2683.       2599.       2354.    
        2277.       2522.       2665.       2561.       2263.       2068.       2140.       2337.       2528.       2732.    
        3072.       3154.       3214.       3219.       3041.       2792.       2675.       2889.       3183.       3309.    
        3443.       3502.       3308.       3346.       3111.       3059.       2815.       2831.       2740.       2562.    
        2382.       2200.       2015.       1828.       1639.       1447.    
  55    2024.       2046.       2068.       2091.       2114.       2137.       2162.       2187.       2212.       2237.    
        2264.       2291.       2319.       2347.       2376.       2406.       2436.       2468.       2499.       2556.    
        2905.       3089.       3182.       3041.       3233.       3549.       3606.       3252.       2914.       2858.    
        2831.       3048.       3149.       3031.       2832.       2726.       2648.       2570.       2500.       2477.    
        2209.       2388.       2652.       2501.       2198.       2044.       2132.       2353.       2555.       2834.    
        2966.       3049.       3200.       3107.       2935.       2648.       2662.       2912.       3116.       3278.    
        3462.       3444.       3290.       3056.       2918.       2790.       2869.       2698.       2686.       2512.    
        2336.       2158.       1977.       1793.       1608.       1420.    
  56    2025.       2046.       2067.       2089.       2111.       2135.       2158.       2182.       2206.       2230.    
        2254.       2280.       2306.       2333.       2360.       2388.       2417.       2446.       2476.       2653.    
        2920.       3138.       3068.       2964.       3120.       3335.       3515.       3152.       2961.       2718.    
        2857.       3014.       3086.       3062.       2917.       2706.       2598.       2504.       2443.       2356.    
        2183.       2340.       2578.       2293.       2073.       2033.       2098.       2369.       2688.       2777.    
        2848.       3010.       3159.       3115.       2810.       2566.       2689.       2925.       3123.       3376.    
        3393.       3479.       3405.       3214.       2969.       2830.       2816.       2752.       2631.       2462.    
        2289.       2115.       1938.       1758.       1576.       1392.    
  57    2029.       2049.       2069.       2089.       2110.       2131.       2153.       2175.       2198.       2222.    
        2246.       2270.       2295.       2320.       2346.       2372.       2399.       2427.       2455.       2724.    
        2831.       2858.       2877.       3094.       3216.       3302.       3362.       3184.       2923.       2686.    
        2773.       2863.       2971.       2946.       3106.       2866.       2654.       2574.       2557.       2451.    
        2168.       2165.       2268.       2072.       2022.       2028.       2163.       2382.       2552.       2625.    
        2781.       2978.       3133.       3076.       2819.       2537.       2699.       2965.       3148.       3273.    
        3231.       3367.       3437.       3181.       2859.       2847.       2654.       2740.       2577.       2411.    
        2242.       2071.       1898.       1723.       1544.       1364.    
  58    2034.       2052.       2071.       2091.       2112.       2131.       2151.       2172.       2193.       2215.    
        2236.       2259.       2282.       2306.       2331.       2356.       2382.       2408.       2435.       2762.    
        2709.       2809.       3105.       3124.       3388.       3092.       3000.       3285.       3110.       2846.    
        2616.       2742.       2805.       2854.       2993.       2884.       2786.       2593.       2462.       2380.    
        2173.       2028.       2017.       2008.       2015.       2137.       2419.       2536.       2734.       2796.    
        2874.       3007.       3124.       3063.       2818.       2544.       2671.       2909.       3064.       3069.    
        3117.       3165.       3217.       3036.       2877.       2747.       2705.       2682.       2522.       2360.    
        2195.       2028.       1859.       1687.       1513.       1339.    
  59    2042.       2058.       2075.       2093.       2112.       2132.       2151.       2171.       2190.       2210.    
        2231.       2251.       2273.       2294.       2316.       2339.       2363.       2389.       2486.       2776.    
        2794.       3042.       3329.       3391.       3537.       3225.       2835.       3185.       3149.       2926.    
        2672.       2559.       2645.       2790.       2957.       2776.       2830.       2683.       2531.       2321.    
        2097.       1999.       1996.       2008.       2135.       2436.       2642.       2691.       2766.       2974.    
        2992.       3100.       3069.       2930.       2827.       2588.       2576.       2836.       2854.       2876.    
        2918.       2879.       2946.       2866.       2813.       2591.       2777.       2624.       2468.       2309.    
        2148.       1985.       1819.       1653.       1484.       1311.    
  60    2050.       2065.       2081.       2097.       2114.       2132.       2150.       2170.       2188.       2207.    
        2226.       2245.       2264.       2284.       2304.       2326.       2348.       2371.       2570.       2763.    
        2814.       3009.       3328.       3465.       3333.       3132.       2750.       2905.       2881.       2908.    
        2730.       2517.       2612.       2832.       2972.       2695.       2798.       2580.       2400.       2240.    
        2037.       1989.       1993.       2046.       2280.       2396.       2589.       2737.       2836.       2997.    
        3113.       3087.       3016.       2914.       2782.       2627.       2501.       2670.       2738.       2840.    
        2754.       2729.       2851.       2858.       2636.       2630.       2715.       2565.       2413.       2258.    
        2101.       1943.       1782.       1618.       1451.       1283.    
  61    2057.       2072.       2087.       2103.       2118.       2134.       2150.       2167.       2184.       2203.    
        2221.       2239.       2256.       2275.       2293.       2312.       2333.       2354.       2617.       2726.    
        2965.       3165.       3346.       3199.       3106.       2866.       2702.       2692.       2760.       2853.    
        2735.       2496.       2516.       2759.       2895.       2702.       2608.       2535.       2284.       2160.    
        1997.       1984.       2071.       2292.       2556.       2535.       2549.       2660.       2784.       2920.    
        3052.       2934.       2941.       3004.       2957.       2769.       2503.       2606.       2766.       2805.    
        2677.       2657.       2716.       2718.       2514.       2738.       2653.       2507.       2358.       2208.    
        2055.       1900.       1742.       1582.       1421.       1257.    
  62    2064.       2079.       2093.       2108.       2122.       2136.       2151.       2167.       2182.       2198.    
        2215.       2232.       2249.       2265.       2282.       2300.       2318.       2348.       2625.       2654.    
        2902.       3051.       3065.       3023.       2905.       2685.       2668.       2598.       2622.       2698.    
        2655.       2515.       2416.       2628.       2803.       2829.       2646.       2498.       2230.       2094.    
        1979.       2045.       2351.       2418.       2553.       2658.       2790.       2796.       2875.       2900.    
        2937.       2859.       2829.       2905.       2840.       2756.       2498.       2595.       2698.       2803.    
        2675.       2540.       2598.       2511.       2541.       2732.       2592.       2449.       2305.       2158.    
        2008.       1857.       1704.       1548.       1389.       1227.    
  63    2068.       2080.       2095.       2110.       2125.       2139.       2153.       2167.       2181.       2195.    
        2209.       2224.       2240.       2255.       2271.       2287.       2304.       2428.       2595.       2551.    
        2623.       2737.       2817.       3034.       2843.       2705.       2570.       2549.       2585.       2692.    
        2683.       2644.       2401.       2554.       2667.       2736.       2746.       2450.       2194.       2052.    
        1983.       2214.       2408.       2541.       2630.       2853.       2904.       2926.       2795.       2835.    
        2829.       2785.       2730.       2848.       2694.       2705.       2526.       2618.       2773.       2769.    
        2608.       2491.       2522.       2428.       2652.       2667.       2530.       2392.       2251.       2108.    
        1963.       1815.       1664.       1511.       1355.       1197.    
  64    2077.       2089.       2100.       2111.       2124.       2138.       2151.       2164.       2177.       2190.    
        2203.       2215.       2230.       2244.       2259.       2273.       2289.       2484.       2519.       2528.    
        2513.       2568.       2817.       2972.       2789.       2730.       2684.       2485.       2465.       2511.    
        2500.       2467.       2377.       2404.       2523.       2562.       2633.       2508.       2172.       2026.    
        2013.       2309.       2479.       2661.       2740.       2846.       2759.       2787.       2685.       2755.    
        2787.       2679.       2633.       2668.       2637.       2691.       2484.       2721.       2900.       2832.    
        2620.       2454.       2399.       2446.       2732.       2602.       2469.       2335.       2198.       2058.    
        1916.       1771.       1624.       1474.       1322.       1167.    
  65    2086.       2096.       2108.       2118.       2128.       2140.       2152.       2163.       2174.       2185.    
        2195.       2206.       2217.       2229.       2242.       2257.       2272.       2494.       2385.       2553.    
        2491.       2494.       2635.       2696.       2611.       2543.       2493.       2398.       2334.       2383.    
        2364.       2340.       2296.       2339.       2405.       2455.       2516.       2299.       2125.       1987.    
        2090.       2441.       2560.       2677.       2885.       2906.       2747.       2651.       2603.       2619.    
        2754.       2642.       2516.       2591.       2536.       2525.       2534.       2727.       2749.       2771.    
        2548.       2483.       2340.       2538.       2665.       2538.       2410.       2278.       2144.       2008.    
        1869.       1728.       1584.       1437.       1288.       1137.    
  66    2094.       2104.       2114.       2124.       2134.       2143.       2153.       2163.       2173.       2182.    
        2191.       2200.       2209.       2218.       2228.       2239.       2296.       2454.       2200.       2492.    
        2470.       2457.       2529.       2506.       2460.       2374.       2288.       2270.       2290.       2276.    
        2305.       2258.       2264.       2210.       2253.       2340.       2365.       2295.       2109.       1982.    
        2164.       2462.       2697.       2793.       2748.       2788.       2798.       2713.       2562.       2490.    
        2634.       2635.       2485.       2444.       2423.       2417.       2561.       2605.       2589.       2646.    
        2490.       2438.       2348.       2638.       2599.       2475.       2350.       2222.       2091.       1958.    
        1822.       1684.       1544.       1401.       1255.       1106.    
  67    2102.       2110.       2120.       2129.       2139.       2148.       2156.       2163.       2171.       2180.    
        2187.       2194.       2201.       2208.       2217.       2226.       2357.       2362.       2596.       2434.    
        2433.       2413.       2452.       2567.       2523.       2358.       2251.       2205.       2238.       2289.    
        2244.       2235.       2289.       2283.       2180.       2165.       2161.       2181.       2096.       1983.    
        2154.       2579.       2704.       2683.       2629.       2649.       2648.       2572.       2524.       2414.    
        2449.       2385.       2360.       2354.       2391.       2444.       2414.       2425.       2460.       2477.    
        2416.       2273.       2422.       2650.       2533.       2413.       2290.       2165.       2038.       1908.    
        1776.       1641.       1504.       1364.       1222.       1076.    
  68    2112.       2119.       2127.       2134.       2142.       2150.       2158.       2165.       2171.       2177.    
        2183.       2189.       2194.       2199.       2205.       2212.       2376.       2204.       2638.       2397.    
        2405.       2381.       2439.       2601.       2540.       2442.       2259.       2171.       2209.       2414.    
        2237.       2216.       2339.       2268.       2220.       2104.       2260.       2415.       2247.       1988.    
        2140.       2523.       2552.       2548.       2508.       2494.       2462.       2397.       2350.       2324.    
        2309.       2344.       2352.       2451.       2542.       2606.       2483.       2332.       2345.       2426.    
        2365.       2260.       2539.       2581.       2467.       2351.       2232.       2110.       1986.       1859.    
        1730.       1599.       1465.       1328.       1189.       1046.    
  69    2121.       2127.       2134.       2141.       2147.       2153.       2158.       2165.       2170.       2175.    
        2179.       2183.       2186.       2190.       2194.       2202.       2345.       2007.       2332.       2359.    
        2469.       2364.       2396.       2510.       2509.       2469.       2393.       2260.       2169.       2343.    
        2300.       2238.       2499.       2249.       2177.       2112.       2253.       2329.       2214.       1988.    
        2102.       2371.       2379.       2386.       2373.       2347.       2292.       2259.       2265.       2269.    
        2310.       2430.       2454.       2469.       2398.       2393.       2488.       2375.       2252.       2316.    
        2372.       2309.       2622.       2514.       2403.       2289.       2173.       2055.       1934.       1811.    
        1685.       1557.       1426.       1292.       1155.       1016.    
  70    2129.       2135.       2141.       2146.       2152.       2157.       2161.       2165.       2168.       2171.    
        2174.       2177.       2180.       2181.       2183.       2254.       2257.       2625.       2325.       2323.    
        2437.       2422.       2330.       2373.       2375.       2347.       2345.       2327.       2231.       2175.    
        2223.       2223.       2444.       2254.       2153.       2099.       2114.       2095.       1999.       1991.    
        2058.       2206.       2225.       2259.       2261.       2240.       2231.       2333.       2435.       2421.    
        2492.       2580.       2561.       2531.       2471.       2379.       2296.       2347.       2280.       2308.    
        2207.       2407.       2553.       2447.       2339.       2229.       2116.       2001.       1883.       1763.    
        1640.       1514.       1386.       1256.       1123.       986.8    
  71    2137.       2142.       2147.       2152.       2156.       2160.       2163.       2166.       2169.       2170.    
        2170.       2170.       2171.       2173.       2174.       2285.       2102.       2707.       2283.       2287.    
        2313.       2328.       2288.       2323.       2262.       2269.       2259.       2247.       2236.       2246.    
        2175.       2191.       2383.       2284.       2179.       2077.       2022.       1999.       2006.       2040.    
        2112.       2209.       2242.       2267.       2205.       2221.       2364.       2430.       2441.       2438.    
        2417.       2456.       2423.       2382.       2355.       2359.       2371.       2256.       2268.       2309.    
        2212.       2486.       2485.       2382.       2277.       2170.       2060.       1948.       1832.       1715.    
        1595.       1473.       1348.       1220.       1091.       960.0    
  72    2140.       2145.       2150.       2155.       2160.       2163.       2165.       2166.       2167.       2167.    
        2167.       2166.       2164.       2163.       2164.       2267.       1910.       2218.       2249.       2253.    
        2248.       2266.       2260.       2301.       2272.       2199.       2209.       2183.       2175.       2144.    
        2157.       2124.       2261.       2224.       2124.       2057.       1998.       2029.       2083.       2128.    
        2271.       2292.       2224.       2195.       2219.       2292.       2332.       2335.       2318.       2320.    
        2357.       2396.       2400.       2392.       2367.       2338.       2333.       2187.       2269.       2223.    
        2281.       2515.       2418.       2318.       2216.       2112.       2005.       1895.       1784.       1669.    
        1553.       1435.       1314.       1190.       1064.       934.6    
  73    2149.       2152.       2154.       2157.       2160.       2164.       2166.       2167.       2167.       2165.    
        2163.       2161.       2158.       2155.       2177.       2190.       2615.       2247.       2217.       2221.    
        2225.       2231.       2232.       2279.       2256.       2190.       2153.       2144.       2129.       2218.    
        2224.       2086.       2131.       2112.       2067.       2015.       2017.       2077.       2141.       2229.    
        2274.       2325.       2237.       2159.       2261.       2354.       2364.       2308.       2271.       2297.    
        2317.       2343.       2339.       2363.       2377.       2401.       2292.       2218.       2269.       2161.    
        2384.       2447.       2353.       2256.       2157.       2056.       1952.       1846.       1739.       1628.    
        1515.       1399.       1280.       1159.       1035.       908.2    
  74    2156.       2159.       2162.       2163.       2164.       2164.       2166.       2167.       2166.       2164.    
        2161.       2158.       2154.       2150.       2216.       2051.       2768.       2187.       2187.       2191.    
        2193.       2200.       2209.       2252.       2237.       2173.       2145.       2135.       2150.       2223.    
        2236.       2201.       2083.       2093.       2063.       1991.       2018.       2128.       2170.       2274.    
        2320.       2270.       2208.       2152.       2241.       2263.       2263.       2232.       2236.       2251.    
        2263.       2287.       2312.       2334.       2324.       2373.       2237.       2256.       2192.       2176.    
        2469.       2380.       2289.       2196.       2101.       2004.       1904.       1801.       1695.       1587.    
        1476.       1362.       1246.       1128.       1007.       884.0    
  75    2163.       2164.       2167.       2169.       2170.       2170.       2168.       2166.       2164.       2162.    
        2159.       2155.       2150.       2146.       2213.       1872.       2148.       2160.       2160.       2165.    
        2166.       2165.       2196.       2227.       2215.       2151.       2137.       2138.       2174.       2205.    
        2201.       2144.       2239.       2272.       2211.       2077.       2032.       2101.       2173.       2289.    
        2231.       2192.       2180.       2149.       2156.       2200.       2200.       2180.       2206.       2210.    
        2236.       2249.       2273.       2325.       2288.       2335.       2188.       2239.       2128.       2255.    
        2403.       2318.       2231.       2141.       2048.       1953.       1855.       1754.       1651.       1546.    
        1438.       1328.       1215.       1100.       981.9       861.1    
  76    2171.       2170.       2171.       2172.       2172.       2173.       2172.       2170.       2166.       2161.    
        2156.       2152.       2147.       2143.       2157.       2567.       2202.       2136.       2137.       2142.    
        2127.       2149.       2188.       2205.       2177.       2124.       2110.       2129.       2154.       2155.    
        2138.       2184.       2200.       2157.       2105.       2027.       2017.       2115.       2216.       2215.    
        2155.       2151.       2169.       2151.       2119.       2145.       2147.       2158.       2187.       2208.    
        2210.       2260.       2248.       2275.       2254.       2296.       2149.       2227.       2125.       2343.    
        2341.       2258.       2173.       2085.       1995.       1902.       1807.       1710.       1610.       1507.    
        1402.       1295.       1185.       1072.       956.9       838.8    
  77    2181.       2180.       2176.       2176.       2175.       2174.       2173.       2171.       2168.       2163.    
        2157.       2151.       2144.       2174.       2038.       2827.       2127.       2115.       2117.       2123.    
        2124.       2147.       2167.       2186.       2135.       2104.       2097.       2101.       2106.       2114.    
        2127.       2132.       2103.       2118.       2108.       2018.       1970.       2086.       2139.       2131.    
        2100.       2109.       2151.       2140.       2114.       2106.       2124.       2135.       2152.       2195.    
        2184.       2249.       2201.       2218.       2236.       2259.       2191.       2120.       2148.       2357.    
        2279.       2199.       2116.       2032.       1944.       1854.       1762.       1668.       1570.       1471.    
        1368.       1263.       1156.       1046.       933.2       818.1    
  78    2188.       2188.       2187.       2183.       2181.       2179.       2177.       2173.       2169.       2164.    
        2159.       2153.       2145.       2185.       1876.       2121.       2095.       2097.       2101.       2109.    
        2120.       2133.       2149.       2165.       2115.       2084.       2071.       2071.       2058.       2055.    
        2055.       2046.       2046.       2137.       2240.       2110.       1968.       2049.       2083.       2072.    
        2058.       2092.       2133.       2133.       2118.       2087.       2097.       2113.       2121.       2171.    
        2174.       2192.       2211.       2229.       2221.       2223.       2192.       2119.       2223.       2296.    
        2220.       2142.       2062.       1980.       1896.       1809.       1719.       1627.       1532.       1435.    
        1335.       1233.       1128.       1021.       911.1       798.7    
  79    2194.       2193.       2191.       2190.       2186.       2182.       2179.       2175.       2171.       2166.    
        2160.       2153.       2147.       2148.       2482.       2188.       2078.       2082.       2088.       2098.    
        2107.       2120.       2133.       2136.       2078.       2068.       2078.       2108.       2103.       2078.    
        2067.       2050.       2028.       2064.       2142.       2135.       1962.       2010.       2038.       2035.    
        2047.       2086.       2115.       2116.       2109.       2084.       2072.       2092.       2123.       2161.    
        2158.       2140.       2185.       2212.       2197.       2187.       2142.       2093.       2306.       2235.    
        2164.       2089.       2011.       1931.       1849.       1764.       1678.       1588.       1496.       1402.    
        1304.       1205.       1103.       998.1       890.9       781.2    
  80    2201.       2199.       2197.       2195.       2193.       2189.       2182.       2178.       2174.       2168.    
        2162.       2155.       2157.       2050.       2881.       2106.       2065.       2070.       2078.       2090.    
        2097.       2108.       2121.       2123.       2108.       2122.       2169.       2259.       2304.       2263.    
        2253.       2202.       2164.       2160.       2049.       2044.       2007.       1951.       2029.       2071.    
        2078.       2088.       2101.       2104.       2100.       2087.       2053.       2071.       2112.       2136.    
        2157.       2139.       2148.       2189.       2160.       2151.       2097.       2121.       2249.       2179.    
        2109.       2038.       1963.       1885.       1805.       1723.       1638.       1551.       1461.       1370.    
        1276.       1179.       1079.       977.2       872.6       765.6    
  81    2208.       2206.       2202.       2199.       2196.       2193.       2189.       2181.       2174.       2169.    
        2163.       2155.       2175.       1905.       2129.       2047.       2054.       2062.       2072.       2077.    
        2098.       2094.       2112.       2116.       2168.       2240.       2257.       2250.       2301.       2264.    
        2259.       2178.       2154.       2095.       2011.       2004.       1986.       1922.       2014.       2062.    
        2089.       2091.       2089.       2094.       2090.       2083.       2045.       2067.       2098.       2105.    
        2142.       2150.       2128.       2128.       2125.       2117.       2114.       2210.       2194.       2127.    
        2059.       1988.       1916.       1842.       1764.       1684.       1602.       1517.       1430.       1340.    
        1248.       1154.       1057.       958.0       856.4       752.0    
  82    2210.       2208.       2206.       2203.       2199.       2195.       2190.       2186.       2178.       2170.    
        2163.       2157.       2150.       2365.       2195.       2036.       2046.       2056.       2069.       2074.    
        2097.       2088.       2104.       2149.       2259.       2328.       2216.       2175.       2177.       2147.    
        2124.       2099.       2082.       2036.       1971.       1984.       1933.       1914.       1996.       2058.    
        2076.       2077.       2079.       2083.       2081.       2072.       2036.       2055.       2080.       2092.    
        2120.       2137.       2155.       2130.       2104.       2089.       2070.       2206.       2143.       2078.    
        2011.       1943.       1872.       1799.       1726.       1649.       1569.       1486.       1401.       1314.    
        1224.       1132.       1037.       940.3       840.9       739.5    
  83    2215.       2210.       2206.       2203.       2200.       2197.       2193.       2187.       2182.       2175.    
        2167.       2159.       2070.       2919.       2106.       2027.       2039.       2053.       2067.       2099.    
        2097.       2098.       2131.       2215.       2337.       2244.       2159.       2124.       2095.       2083.    
        2049.       2028.       2002.       1998.       1940.       1903.       1931.       1992.       2013.       2060.    
        2059.       2064.       2068.       2073.       2071.       2061.       2025.       2055.       2068.       2088.    
        2091.       2108.       2126.       2103.       2097.       2103.       2095.       2157.       2095.       2032.    
        1967.       1900.       1832.       1761.       1687.       1614.       1538.       1458.       1376.       1291.    
        1203.       1114.       1021.       926.6       829.6       730.3    
  84    2217.       2213.       2208.       2204.       2200.       2196.       2192.       2188.       2183.       2178.    
        2172.       2174.       1943.       2156.       2021.       2021.       2037.       2053.       2047.       2103.    
        2098.       2110.       2157.       2305.       2363.       2235.       2171.       2121.       2084.       2056.    
        2022.       2006.       2004.       1958.       1904.       1943.       1993.       1995.       2023.       2057.    
        2057.       2054.       2056.       2064.       2062.       2050.       2027.       2051.       2060.       2070.    
        2072.       2094.       2093.       2083.       2071.       2096.       2166.       2110.       2052.       1989.    
        1927.       1863.       1796.       1727.       1656.       1583.       1507.       1432.       1353.       1270.    
        1185.       1098.       1008.       916.0       821.3       724.3    
  85    2220.       2215.       2212.       2207.       2201.       2196.       2191.       2186.       2181.       2177.    
        2174.       2162.       2225.       2208.       1997.       2016.       2034.       2051.       2073.       2091.    
        2097.       2116.       2159.       2337.       2392.       2257.       2146.       2125.       2076.       2045.    
        2014.       1979.       1968.       1929.       1898.       1963.       1988.       1996.       2041.       2048.    
        2049.       2045.       2046.       2056.       2054.       2027.       2030.       2039.       2033.       2046.    
        2063.       2072.       2055.       2057.       2063.       2044.       2120.       2066.       2010.       1952.    
        1889.       1827.       1762.       1696.       1627.       1556.       1483.       1407.       1331.       1253.    
        1170.       1085.       997.7       907.8       815.5       720.8    
  86    2223.       2217.       2212.       2208.       2204.       2198.       2191.       2186.       2180.       2175.    
        2171.       2094.       2941.       2118.       1990.       2011.       2031.       2031.       2111.       2088.    
        2095.       2084.       2214.       2322.       2360.       2233.       2111.       2140.       2098.       2058.    
        2038.       2017.       1981.       1921.       1890.       1974.       1983.       2015.       2042.       2040.    
        2042.       2039.       2035.       2049.       2042.       2002.       2036.       2020.       2011.       2026.    
        2041.       2046.       2037.       2033.       2042.       2103.       2077.       2025.       1971.       1915.    
        1858.       1794.       1732.       1667.       1601.       1532.       1461.       1387.       1312.       1234.    
        1156.       1075.       989.8       902.4       812.7       720.6    
  87    2229.       2219.       2213.       2208.       2203.       2198.       2193.       2186.       2180.       2174.    
        2170.       1977.       2193.       2015.       1987.       2009.       2030.       2050.       2093.       2085.    
        2096.       2156.       2169.       2259.       2308.       2147.       2039.       2046.       2072.       2043.    
        1996.       1967.       1966.       1907.       1894.       1976.       1981.       2022.       2034.       2032.    
        2034.       2022.       2037.       2038.       2019.       1999.       2032.       2016.       2003.       2016.    
        2030.       2023.       2023.       2022.       2031.       2087.       2038.       1988.       1935.       1881.    
        1826.       1768.       1705.       1642.       1577.       1511.       1442.       1370.       1297.       1221.    
        1143.       1064.       984.0       899.2       811.7       721.9    
  88    2232.       2224.       2215.       2208.       2202.       2196.       2192.       2186.       2181.       2175.    
        2160.       2070.       2218.       1956.       1982.       2010.       2031.       2078.       2063.       2084.    
        2093.       2110.       2138.       2143.       2230.       2184.       2051.       2001.       1987.       1968.    
        1992.       1968.       1918.       1887.       1897.       1971.       1989.       2026.       2025.       2018.    
        2023.       1999.       2028.       2017.       1980.       2012.       2015.       1996.       2005.       2020.    
        2026.       2014.       2014.       2022.       2019.       2049.       2003.       1954.       1904.       1852.    
        1798.       1742.       1685.       1621.       1557.       1493.       1426.       1357.       1285.       1212.    
        1136.       1058.       977.7       897.1       813.7       726.2    
  89    2235.       2228.       2221.       2211.       2202.       2196.       2191.       2185.       2179.       2176.    
        2105.       2926.       2121.       1947.       1980.       2008.       2000.       2118.       2057.       2079.    
        2090.       2106.       2112.       2087.       2209.       2172.       2048.       2018.       1989.       1953.    
        1933.       1918.       1907.       1882.       1907.       1969.       1994.       2015.       1994.       1982.    
        1988.       1972.       1995.       1977.       1986.       2005.       1990.       2016.       2030.       2027.    
        2011.       2003.       2009.       2018.       2058.       2016.       1971.       1925.       1876.       1826.    
        1774.       1720.       1665.       1607.       1542.       1479.       1414.       1347.       1277.       1206.    
        1132.       1056.       977.5       896.8       814.6       731.8    
  90    2238.       2231.       2224.       2216.       2207.       2197.       2190.       2184.       2179.       2176.    
        2005.       2228.       2011.       1942.       1976.       2004.       2047.       2074.       2054.       2073.    
        2086.       2100.       2072.       2057.       2119.       2200.       2157.       2046.       2002.       1974.    
        1958.       1912.       1882.       1886.       1912.       1963.       1979.       1953.       1923.       1925.    
        1939.       1952.       1951.       1960.       1978.       1984.       1994.       2015.       2030.       2019.    
        2008.       1996.       1996.       2001.       2027.       1987.       1944.       1900.       1853.       1804.    
        1753.       1701.       1647.       1592.       1534.       1469.       1406.       1341.       1273.       1203.    
        1131.       1057.       980.7       902.1       821.3       738.3    
  91    2238.       2229.       2223.       2215.       2207.       2198.       2188.       2180.       2173.       2160.    
        1951.       2223.       1922.       1938.       1973.       1976.       2098.       2025.       2049.       2067.    
        2084.       2081.       2037.       2022.       2117.       2246.       2231.       2052.       1977.       1957.    
        1940.       1921.       1872.       1880.       1920.       1959.       1941.       1912.       1972.       1986.    
        1984.       1957.       1986.       1957.       1986.       2014.       2020.       2015.       2018.       2006.    
        2000.       1992.       1988.       2028.       1998.       1960.       1921.       1879.       1834.       1787.    
        1738.       1687.       1635.       1581.       1525.       1468.       1402.       1338.       1273.       1206.    
        1136.       1064.       988.8       911.8       832.8       752.0    
  92    2237.       2228.       2219.       2212.       2204.       2196.       2188.       2177.       2170.       2111.    
        2891.       2123.       1896.       1935.       1970.       2023.       2091.       1995.       2042.       2062.    
        2084.       2027.       2009.       2003.       2146.       2215.       2096.       2020.       1955.       1938.    
        1915.       1900.       1864.       1874.       1937.       1947.       1907.       1976.       1994.       2024.    
        2028.       1995.       2018.       2009.       2008.       2024.       2038.       2031.       2031.       2017.    
        2011.       1991.       1986.       2009.       1975.       1938.       1900.       1861.       1819.       1775.    
        1727.       1678.       1627.       1574.       1520.       1463.       1406.       1340.       1275.       1210.    
        1143.       1073.       1001.       926.3       849.6       770.4    
  93    2237.       2227.       2217.       2208.       2201.       2192.       2185.       2177.       2168.       2019.    
        2254.       2005.       1889.       1933.       1963.       1999.       2035.       1997.       2036.       2059.    
        2076.       1990.       1984.       1981.       2101.       2203.       2094.       2031.       1989.       1972.    
        1916.       1888.       1885.       1863.       1925.       1913.       1934.       2033.       2035.       2051.    
        2048.       2024.       2018.       2029.       2027.       2022.       2029.       2042.       2045.       2031.    
        2012.       1991.       1999.       1989.       1956.       1921.       1884.       1846.       1806.       1765.    
        1721.       1673.       1623.       1572.       1519.       1464.       1407.       1350.       1284.       1218.    
        1152.       1084.       1014.       941.7       867.3       790.6    
  94    2236.       2225.       2215.       2205.       2196.       2187.       2182.       2174.       2162.       1933.    
        2214.       1899.       1885.       1931.       1939.       2097.       1978.       1998.       2032.       2045.    
        2000.       1967.       1964.       1962.       2017.       2174.       2101.       2048.       2067.       2037.    
        1951.       1931.       1907.       1854.       1914.       1893.       1904.       1949.       1997.       2030.    
        2044.       2052.       2040.       2040.       2045.       2038.       2031.       2043.       2056.       2046.    
        2010.       1993.       2002.       1973.       1942.       1908.       1873.       1837.       1798.       1758.    
        1717.       1672.       1624.       1574.       1522.       1469.       1414.       1357.       1299.       1233.    
        1167.       1100.       1032.       961.2       888.4       813.3    
  95    2234.       2223.       2212.       2201.       2191.       2181.       2173.       2167.       2119.       2835.    
        2118.       1840.       1884.       1925.       1987.       2052.       1935.       1996.       2030.       2062.    
        1951.       1951.       1944.       1953.       1991.       2132.       2212.       2100.       2017.       2041.    
        1978.       1927.       1882.       1848.       1911.       1877.       1932.       1977.       2003.       2015.    
        2024.       2037.       2066.       2070.       2078.       2063.       2046.       2050.       2044.       2021.    
        2008.       2006.       1988.       1960.       1931.       1900.       1867.       1832.       1795.       1756.    
        1715.       1673.       1629.       1582.       1531.       1479.       1426.       1370.       1313.       1254.    
        1188.       1121.       1054.       984.9       914.0       840.9    
  96    2231.       2219.       2208.       2196.       2186.       2175.       2165.       2158.       2034.       2257.    
        2003.       1835.       1885.       1895.       2046.       1989.       1927.       1996.       2029.       2037.    
        1905.       1940.       1938.       1946.       1988.       2152.       2137.       2037.       1993.       1990.    
        1995.       1925.       1865.       1853.       1872.       1943.       1963.       1997.       1990.       2026.    
        2061.       2072.       2161.       2170.       2212.       2143.       2133.       2104.       2045.       2021.    
        2023.       2005.       1981.       1954.       1926.       1896.       1865.       1831.       1796.       1759.    
        1719.       1678.       1634.       1590.       1544.       1493.       1442.       1387.       1331.       1273.    
        1215.       1149.       1081.       1014.       943.9       872.2    
  97    2228.       2215.       2203.       2191.       2180.       2169.       2159.       2149.       1940.       2204.    
        1892.       1836.       1888.       1955.       2057.       1930.       1937.       1996.       2015.       1971.    
        1904.       1930.       1921.       1939.       2002.       2163.       2139.       2049.       1984.       1968.    
        1934.       1937.       1866.       1840.       1862.       1970.       1999.       2024.       2017.       2079.    
        2184.       2208.       2252.       2246.       2243.       2229.       2229.       2208.       2072.       2012.    
        2013.       1996.       1976.       1952.       1927.       1898.       1868.       1836.       1803.       1767.    
        1729.       1689.       1647.       1603.       1558.       1511.       1460.       1408.       1354.       1297.    
        1239.       1180.       1116.       1047.       979.4       909.8    
  98    2224.       2210.       2198.       2186.       2175.       2164.       2153.       2119.       2754.       2108.    
        1807.       1838.       1882.       1878.       2005.       1882.       1945.       1998.       2046.       1928.    
        1916.       1919.       1910.       1936.       1999.       2168.       2147.       2079.       1968.       1977.    
        1934.       1899.       1867.       1838.       1934.       1968.       2014.       2043.       2059.       2172.    
        2249.       2233.       2209.       2218.       2231.       2207.       2178.       2207.       2091.       2013.    
        1993.       1984.       1969.       1951.       1928.       1900.       1877.       1846.       1814.       1780.    
        1744.       1706.       1666.       1623.       1579.       1533.       1485.       1433.       1381.       1327.    
        1270.       1210.       1150.       1085.       1016.       948.5    
  99    2221.       2207.       2194.       2181.       2168.       2156.       2144.       2041.       2240.       1997.    
        1782.       1842.       1890.       2053.       1945.       1856.       1955.       1964.       1983.       1902.    
        1921.       1899.       1920.       1948.       2010.       2067.       2101.       1994.       1962.       1957.    
        1966.       1910.       1864.       1868.       1955.       1985.       2001.       2045.       2120.       2135.    
        2210.       2227.       2193.       2185.       2209.       2191.       2152.       2209.       2170.       2047.    
        1975.       1968.       1960.       1947.       1929.       1907.       1880.       1849.       1828.       1798.    
        1763.       1726.       1688.       1647.       1604.       1560.       1513.       1465.       1413.       1360.    
        1305.       1248.       1188.       1129.       1062.       991.8    
 100    2216.       2201.       2187.       2173.       2160.       2147.       2134.       1946.       2184.       1886.    
        1783.       1841.       1916.       2011.       1891.       1880.       1968.       2010.       1954.       1900.    
        1919.       1917.       1938.       1970.       1992.       1975.       1985.       1994.       1972.       1937.    
        1998.       1991.       1873.       1915.       2010.       1994.       2011.       2098.       2060.       2061.    
        2168.       2201.       2191.       2145.       2184.       2167.       2152.       2200.       2218.       1966.    
        1958.       1950.       1943.       1936.       1930.       1912.       1890.       1865.       1834.       1798.    
        1777.       1752.       1715.       1676.       1635.       1591.       1546.       1499.       1449.       1398.    
        1344.       1289.       1231.       1172.       1112.       1043.    
 101    2209.       2194.       2179.       2165.       2151.       2137.       2119.       2658.       2094.       1792.    
        1790.       1815.       1982.       1956.       1848.       1907.       1960.       2008.       1936.       1915.    
        1917.       1940.       1954.       1978.       2025.       1982.       1946.       1974.       1949.       1965.    
        2013.       1999.       1858.       1955.       2030.       1999.       1996.       2043.       2028.       2117.    
        2177.       2199.       2174.       2132.       2154.       2121.       2161.       2243.       2118.       1951.    
        1942.       1933.       1925.       1918.       1912.       1906.       1900.       1878.       1853.       1823.    
        1789.       1749.       1725.       1708.       1670.       1628.       1584.       1539.       1490.       1440.    
        1389.       1334.       1278.       1220.       1161.       1100.    
 102    2202.       2186.       2170.       2155.       2141.       2126.       2048.       2216.       1990.       1740.    
        1798.       1872.       2005.       1904.       1822.       1930.       1951.       1978.       1939.       1951.    
        1944.       1943.       1969.       1985.       1977.       2001.       1977.       1931.       1927.       1948.    
        1990.       1968.       1873.       1956.       2009.       1982.       1994.       1980.       2042.       2067.    
        2176.       2183.       2189.       2144.       2090.       2092.       2199.       2238.       1946.       1936.    
        1927.       1918.       1910.       1902.       1895.       1888.       1882.       1876.       1868.       1844.    
        1815.       1781.       1743.       1699.       1673.       1660.       1629.       1584.       1538.       1488.    
        1437.       1385.       1330.       1273.       1215.       1156.    
 103    2193.       2176.       2160.       2145.       2130.       2115.       1951.       2158.       1887.       1740.    
        1799.       1808.       1960.       1861.       1824.       1940.       2014.       1965.       1989.       1989.    
        1978.       1972.       1978.       1952.       1950.       1984.       1971.       1948.       1897.       1920.    
        1980.       2037.       1895.       1889.       1967.       1937.       1972.       1981.       1997.       2079.    
        2171.       2152.       2170.       2172.       2055.       2129.       2240.       2050.       1933.       1923.    
        1913.       1904.       1895.       1887.       1879.       1872.       1865.       1858.       1851.       1843.    
        1838.       1810.       1777.       1739.       1697.       1649.       1619.       1609.       1588.       1542.    
        1492.       1440.       1387.       1333.       1275.       1216.    
 104    2183.       2166.       2150.       2134.       2118.       2102.       2547.       2074.       1794.       1752.    
        1852.       1986.       1913.       1830.       1875.       1896.       1986.       1994.       1991.       2001.    
        2014.       2010.       1980.       1935.       1931.       1968.       1941.       2003.       1931.       1910.    
        2020.       2055.       1891.       1848.       1901.       1968.       2066.       2078.       2086.       2105.    
        2152.       2125.       2113.       2102.       2076.       2185.       2188.       1931.       1921.       1910.    
        1900.       1891.       1882.       1873.       1865.       1857.       1850.       1842.       1835.       1827.    
        1819.       1813.       1807.       1775.       1738.       1696.       1650.       1598.       1565.       1555.    
        1541.       1501.       1448.       1394.       1339.       1282.    
 105    2173.       2155.       2138.       2121.       2104.       2054.       2181.       1982.       1724.       1763.    
        1837.       1953.       1873.       1810.       1905.       1957.       1982.       1965.       1967.       1995.    
        2034.       2075.       1995.       1944.       1917.       1920.       1893.       1943.       1924.       1897.    
        2025.       2006.       1849.       1858.       2010.       2049.       2098.       2108.       2064.       2086.    
        2116.       2136.       2113.       2084.       2132.       2164.       1947.       1920.       1909.       1898.    
        1888.       1878.       1869.       1860.       1851.       1843.       1835.       1827.       1820.       1812.    
        1803.       1795.       1789.       1783.       1777.       1740.       1699.       1654.       1603.       1547.    
        1511.       1500.       1491.       1462.       1408.       1352.    
 106    2161.       2142.       2124.       2107.       2090.       1956.       2123.       1889.       1711.       1751.    
        1913.       1912.       1844.       1803.       1878.       1983.       1959.       1945.       1966.       1995.    
        2012.       2051.       1973.       1944.       1916.       1891.       1878.       1871.       1898.       1868.    
        1959.       1902.       1809.       1893.       2015.       2060.       2092.       2079.       2045.       2095.    
        2112.       2118.       2125.       2102.       2094.       2130.       1921.       1909.       1898.       1887.    
        1877.       1866.       1857.       1847.       1838.       1830.       1821.       1813.       1805.       1797.    
        1789.       1780.       1772.       1764.       1758.       1753.       1746.       1705.       1660.       1610.    
        1556.       1496.       1456.       1444.       1437.       1418.    
 107    2147.       2128.       2110.       2092.       2074.       2424.       2047.       1807.       1728.       1789.    
        1934.       1877.       1826.       1851.       1908.       1958.       1943.       1929.       1954.       1967.    
        1977.       1973.       1972.       1943.       1937.       1930.       1905.       1864.       1839.       1858.    
        1906.       1835.       1800.       1951.       2067.       2094.       2062.       2014.       2035.       2099.    
        2115.       2074.       2091.       2067.       2089.       2000.       1910.       1899.       1888.       1877.    
        1866.       1855.       1845.       1835.       1826.       1817.       1808.       1799.       1791.       1783.    
        1775.       1766.       1756.       1748.       1741.       1734.       1728.       1724.       1715.       1670.    
        1621.       1567.       1509.       1445.       1400.       1386.    
 108    2132.       2113.       2094.       2075.       2053.       2133.       1968.       1740.       1742.       1791.    
        1899.       1851.       1821.       1862.       1934.       1933.       1917.       1934.       1959.       1971.    
        1924.       1907.       1909.       1939.       1945.       1911.       1885.       1861.       1833.       1848.    
        1872.       1805.       1834.       2056.       2087.       2070.       2021.       2002.       2043.       2072.    
        2103.       2075.       2054.       2045.       2073.       1912.       1900.       1889.       1878.       1866.    
        1855.       1845.       1834.       1824.       1814.       1804.       1795.       1786.       1777.       1769.    
        1760.       1752.       1742.       1733.       1724.       1717.       1710.       1704.       1697.       1696.    
        1684.       1636.       1582.       1525.       1462.       1392.    
 109    2116.       2095.       2076.       2058.       1958.       2079.       1893.       1705.       1773.       1900.    
        1868.       1839.       1830.       1850.       1899.       1909.       1904.       1921.       1937.       1956.    
        1905.       1874.       1868.       1878.       1912.       1898.       1875.       1850.       1831.       1828.    
        1841.       1792.       1879.       2074.       2050.       1992.       1963.       1986.       2016.       2065.    
        2072.       2050.       2042.       2034.       1930.       1903.       1891.       1880.       1868.       1857.    
        1845.       1834.       1824.       1813.       1803.       1793.       1783.       1774.       1765.       1755.    
        1746.       1738.       1729.       1718.       1710.       1701.       1693.       1686.       1679.       1672.    
        1666.       1668.       1654.       1602.       1545.       1482.    
 110    2097.       2077.       2058.       2039.       2291.       2014.       1825.       1720.       1764.       1873.    
        1848.       1841.       1850.       1868.       1885.       1888.       1907.       1937.       1958.       1943.    
        1916.       1881.       1847.       1833.       1888.       1910.       1885.       1857.       1840.       1812.    
        1822.       1789.       1873.       1928.       1913.       1923.       1996.       2022.       2056.       2077.    
        2055.       2017.       2000.       2012.       1906.       1895.       1882.       1870.       1859.       1847.    
        1836.       1825.       1814.       1803.       1792.       1782.       1772.       1762.       1752.       1743.    
        1733.       1724.       1715.       1705.       1695.       1686.       1677.       1669.       1661.       1654.    
        1648.       1641.       1635.       1640.       1624.       1567.    
 111    2078.       2058.       2038.       2019.       2075.       1947.       1770.       1727.       1833.       1847.    
        1843.       1859.       1866.       1866.       1874.       1900.       1927.       1937.       1934.       1880.    
        1888.       1859.       1852.       1817.       1852.       1883.       1837.       1801.       1815.       1785.    
        1783.       1792.       1830.       1871.       2007.       2032.       2076.       2077.       2054.       2037.    
        2037.       2031.       1996.       1910.       1897.       1886.       1872.       1860.       1849.       1838.    
        1826.       1815.       1804.       1793.       1782.       1771.       1761.       1750.       1741.       1731.    
        1721.       1712.       1702.       1693.       1682.       1672.       1663.       1654.       1645.       1637.    
        1630.       1623.       1616.       1610.       1604.       1612.    
 112    2057.       2036.       2016.       1958.       2022.       1887.       1735.       1721.       1834.       1835.    
        1827.       1849.       1856.       1863.       1893.       1897.       1892.       1883.       1908.       1861.    
        1869.       1864.       1833.       1805.       1807.       1853.       1812.       1791.       1771.       1777.    
        1797.       1814.       1828.       1889.       2008.       2060.       2042.       2071.       2037.       2020.    
        2001.       2016.       1982.       1902.       1889.       1877.       1863.       1851.       1839.       1828.    
        1816.       1805.       1794.       1783.       1772.       1761.       1750.       1740.       1729.       1719.    
        1709.       1699.       1690.       1680.       1670.       1658.       1649.       1640.       1630.       1621.    
        1613.       1606.       1599.       1592.       1585.       1579.    
 113    2033.       2013.       1994.       2150.       1964.       1839.       1738.       1774.       1815.       1809.    
        1834.       1834.       1851.       1880.       1886.       1867.       1874.       1866.       1879.       1844.    
        1851.       1830.       1862.       1822.       1784.       1816.       1801.       1768.       1768.       1804.    
        1854.       1887.       1871.       1907.       1961.       1965.       2017.       2044.       2032.       2000.    
        1979.       1998.       1907.       1894.       1881.       1868.       1855.       1842.       1830.       1818.    
        1807.       1796.       1784.       1774.       1763.       1751.       1740.       1729.       1718.       1708.    
        1698.       1688.       1678.       1668.       1658.       1647.       1635.       1626.       1617.       1606.    
        1597.       1589.       1582.       1575.       1567.       1560.    
 114    2007.       1988.       1969.       1998.       1912.       1804.       1736.       1782.       1806.       1820.    
        1824.       1838.       1875.       1883.       1865.       1836.       1843.       1841.       1870.       1844.    
        1849.       1817.       1843.       1816.       1785.       1782.       1771.       1757.       1799.       1842.    
        1852.       1862.       1878.       1892.       1921.       1982.       2000.       2037.       2021.       2006.    
        2004.       1993.       1899.       1886.       1873.       1860.       1847.       1834.       1822.       1809.    
        1797.       1786.       1775.       1763.       1752.       1742.       1731.       1719.       1708.       1697.    
        1687.       1677.       1666.       1656.       1646.       1636.       1624.       1613.       1603.       1594.    
        1583.       1574.       1565.       1558.       1550.       1543.    
 115    1981.       1961.       1939.       1948.       1869.       1787.       1750.       1768.       1801.       1806.    
        1819.       1856.       1867.       1850.       1849.       1836.       1815.       1820.       1850.       1834.    
        1810.       1791.       1788.       1795.       1769.       1748.       1756.       1791.       1826.       1858.    
        1874.       1884.       1903.       1918.       1933.       2008.       2024.       2037.       2026.       2009.    
        1992.       1904.       1892.       1878.       1865.       1853.       1841.       1826.       1814.       1801.    
        1789.       1777.       1765.       1755.       1743.       1731.       1720.       1710.       1698.       1687.    
        1676.       1666.       1655.       1645.       1634.       1624.       1614.       1601.       1591.       1581.    
        1571.       1560.       1551.       1542.       1534.       1527.    
 116    1952.       1931.       2000.       1900.       1837.       1795.       1781.       1774.       1784.       1810.    
        1848.       1865.       1855.       1821.       1818.       1813.       1793.       1800.       1821.       1835.    
        1777.       1769.       1755.       1763.       1743.       1751.       1785.       1822.       1841.       1859.    
        1881.       1901.       1909.       1936.       1979.       2020.       1992.       1986.       1984.       2004.    
        2001.       1896.       1883.       1871.       1858.       1845.       1833.       1818.       1806.       1793.    
        1781.       1768.       1756.       1745.       1734.       1722.       1711.       1699.       1688.       1677.    
        1666.       1655.       1644.       1634.       1623.       1613.       1602.       1591.       1578.       1568.    
        1559.       1548.       1537.       1528.       1519.       1511.    
 117    1918.       1897.       1902.       1857.       1821.       1810.       1798.       1775.       1794.       1824.    
        1839.       1843.       1827.       1810.       1791.       1802.       1794.       1781.       1796.       1810.    
        1777.       1756.       1740.       1735.       1747.       1772.       1809.       1832.       1853.       1872.    
        1895.       1926.       1930.       1947.       1998.       2022.       1975.       1948.       1976.       1967.    
        1904.       1889.       1875.       1862.       1850.       1837.       1826.       1811.       1798.       1785.    
        1773.       1760.       1748.       1736.       1724.       1713.       1702.       1690.       1678.       1667.    
        1656.       1645.       1634.       1623.       1613.       1602.       1591.       1580.       1569.       1556.    
        1546.       1536.       1525.       1515.       1505.       1496.    
 118    1881.       1861.       1854.       1824.       1783.       1782.       1762.       1779.       1800.       1792.    
        1792.       1815.       1797.       1777.       1782.       1783.       1799.       1766.       1777.       1787.    
        1778.       1752.       1725.       1743.       1770.       1793.       1812.       1824.       1837.       1853.    
        1874.       1905.       1941.       1958.       2005.       2011.       1982.       1930.       1934.       1942.    
        1900.       1884.       1868.       1855.       1841.       1829.       1819.       1804.       1790.       1778.    
        1765.       1752.       1740.       1728.       1715.       1703.       1691.       1681.       1669.       1658.    
        1646.       1635.       1624.       1613.       1602.       1591.       1580.       1570.       1559.       1546.    
        1534.       1524.       1514.       1502.       1492.       1482.    
 119    1841.       1847.       1809.       1759.       1768.       1750.       1768.       1800.       1788.       1766.    
        1765.       1779.       1769.       1760.       1759.       1762.       1779.       1775.       1753.       1768.    
        1754.       1721.       1730.       1758.       1792.       1822.       1833.       1849.       1866.       1865.    
        1898.       1900.       1924.       1957.       2000.       1977.       1943.       1926.       1911.       1909.    
        1894.       1879.       1865.       1848.       1834.       1821.       1810.       1797.       1783.       1770.    
        1757.       1745.       1732.       1720.       1707.       1695.       1683.       1671.       1659.       1649.    
        1637.       1625.       1614.       1603.       1592.       1581.       1570.       1559.       1548.       1537.    
        1524.       1513.       1502.       1492.       1480.       1470.    
 120    1795.       1781.       1736.       1744.       1735.       1747.       1773.       1790.       1763.       1744.    
        1743.       1752.       1747.       1735.       1734.       1744.       1760.       1758.       1739.       1751.    
        1721.       1726.       1753.       1785.       1806.       1833.       1853.       1874.       1894.       1889.    
        1894.       1927.       1954.       1983.       2038.       2013.       1943.       1902.       1886.       1903.    
        1889.       1874.       1860.       1846.       1829.       1814.       1802.       1789.       1776.       1763.    
        1750.       1737.       1725.       1712.       1699.       1687.       1675.       1662.       1650.       1639.    
        1628.       1616.       1605.       1593.       1581.       1570.       1560.       1549.       1538.       1527.    
        1515.       1502.       1491.       1481.       1470.       1458.    
 121    1745.       1713.       1730.       1741.       1731.       1760.       1786.       1780.       1754.       1734.    
        1727.       1726.       1744.       1763.       1732.       1754.       1745.       1741.       1722.       1712.    
        1712.       1747.       1780.       1793.       1818.       1843.       1865.       1887.       1917.       1921.    
        1908.       1928.       1970.       2015.       1995.       1981.       1958.       1929.       1912.       1898.    
        1883.       1869.       1855.       1840.       1826.       1811.       1796.       1782.       1769.       1756.    
        1743.       1730.       1717.       1704.       1692.       1679.       1667.       1654.       1642.       1630.    
        1618.       1607.       1595.       1584.       1572.       1561.       1549.       1538.       1527.       1516.    
        1505.       1493.       1480.       1469.       1459.       1448.    
 122    1689.       1689.       1718.       1720.       1744.       1770.       1783.       1782.       1752.       1723.    
        1711.       1708.       1738.       1731.       1708.       1706.       1700.       1702.       1700.       1702.    
        1724.       1750.       1790.       1798.       1821.       1860.       1893.       1900.       1931.       1954.    
        1939.       1950.       1980.       2012.       1987.       1953.       1929.       1921.       1906.       1892.    
        1878.       1863.       1849.       1835.       1820.       1806.       1792.       1776.       1762.       1749.    
        1736.       1723.       1710.       1697.       1684.       1671.       1659.       1646.       1634.       1622.    
        1609.       1597.       1586.       1575.       1563.       1552.       1540.       1528.       1517.       1505.    
        1495.       1484.       1470.       1459.       1448.       1437.    
 123    1648.       1716.       1711.       1729.       1758.       1769.       1761.       1753.       1739.       1716.    
        1700.       1693.       1696.       1684.       1681.       1682.       1683.       1689.       1700.       1721.    
        1747.       1775.       1783.       1803.       1840.       1881.       1904.       1931.       1936.       1972.    
        1976.       1993.       1992.       1976.       1971.       1971.       1954.       1915.       1902.       1887.    
        1872.       1858.       1844.       1829.       1815.       1801.       1786.       1773.       1757.       1742.    
        1728.       1715.       1703.       1690.       1677.       1664.       1651.       1639.       1626.       1614.    
        1601.       1589.       1577.       1565.       1554.       1543.       1531.       1519.       1507.       1496.    
        1484.       1473.       1462.       1448.       1437.       1426.    
 124    1697.       1705.       1715.       1747.       1759.       1748.       1738.       1718.       1710.       1704.    
        1699.       1672.       1665.       1666.       1672.       1685.       1700.       1714.       1723.       1745.    
        1768.       1797.       1811.       1824.       1860.       1892.       1933.       1951.       1980.       1974.    
        2019.       1994.       1998.       1953.       1935.       1956.       1920.       1909.       1896.       1883.    
        1867.       1853.       1838.       1824.       1810.       1796.       1781.       1767.       1753.       1738.    
        1722.       1707.       1694.       1683.       1670.       1657.       1644.       1631.       1618.       1606.    
        1594.       1581.       1569.       1556.       1545.       1533.       1522.       1510.       1498.       1487.    
        1475.       1463.       1452.       1440.       1427.       1416.    
 125    1690.       1715.       1745.       1742.       1727.       1719.       1703.       1693.       1691.       1676.    
        1655.       1657.       1662.       1680.       1710.       1715.       1724.       1741.       1753.       1750.    
        1767.       1801.       1836.       1867.       1890.       1929.       1946.       1975.       1977.       1945.    
        1980.       1971.       1967.       1972.       1915.       1921.       1914.       1904.       1893.       1880.    
        1865.       1849.       1832.       1819.       1804.       1790.       1776.       1762.       1747.       1733.    
        1718.       1701.       1687.       1673.       1662.       1650.       1637.       1624.       1611.       1598.    
        1586.       1573.       1561.       1548.       1536.       1524.       1512.       1501.       1490.       1478.    
        1466.       1454.       1442.       1431.       1418.       1405.    
 126    1697.       1719.       1716.       1714.       1700.       1690.       1678.       1665.       1651.       1652.    
        1667.       1689.       1712.       1712.       1704.       1723.       1736.       1759.       1776.       1788.    
        1784.       1791.       1839.       1875.       1898.       1910.       1915.       1934.       1943.       1917.    
        1933.       1943.       1928.       1942.       1940.       1937.       1904.       1901.       1890.       1878.    
        1864.       1849.       1832.       1814.       1799.       1785.       1771.       1757.       1743.       1728.    
        1714.       1699.       1682.       1667.       1653.       1642.       1630.       1617.       1604.       1591.    
        1578.       1566.       1554.       1541.       1528.       1516.       1504.       1491.       1480.       1469.    
        1457.       1445.       1433.       1421.       1410.       1396.    
 127    1692.       1700.       1705.       1690.       1679.       1668.       1649.       1643.       1661.       1696.    
        1718.       1742.       1762.       1738.       1719.       1744.       1762.       1776.       1808.       1826.    
        1814.       1805.       1820.       1844.       1864.       1882.       1876.       1908.       1928.       1894.    
        1910.       1911.       1912.       1927.       1958.       1991.       1953.       1888.       1888.       1878.    
        1865.       1850.       1834.       1816.       1798.       1778.       1765.       1752.       1738.       1723.    
        1709.       1694.       1679.       1662.       1647.       1634.       1621.       1610.       1597.       1584.    
        1571.       1558.       1547.       1534.       1521.       1508.       1496.       1483.       1471.       1459.    
        1448.       1436.       1424.       1412.       1401.       1389.    
 128    1666.       1665.       1659.       1662.       1655.       1645.       1651.       1690.       1716.       1729.    
        1748.       1759.       1782.       1765.       1745.       1771.       1796.       1806.       1817.       1808.    
        1802.       1797.       1794.       1817.       1837.       1849.       1861.       1908.       1910.       1910.    
        1886.       1891.       1897.       1916.       1959.       2020.       2041.       1970.       1871.       1864.    
        1867.       1853.       1838.       1821.       1802.       1783.       1761.       1744.       1732.       1718.    
        1704.       1690.       1673.       1659.       1644.       1628.       1614.       1601.       1590.       1578.    
        1564.       1551.       1539.       1527.       1514.       1501.       1488.       1476.       1463.       1450.    
        1438.       1427.       1416.       1404.       1392.       1380.    
 129    1650.       1643.       1636.       1633.       1641.       1670.       1713.       1731.       1741.       1754.    
        1764.       1772.       1788.       1790.       1773.       1768.       1779.       1778.       1782.       1787.    
        1766.       1766.       1777.       1797.       1837.       1837.       1876.       1860.       1864.       1868.    
        1872.       1877.       1882.       1888.       1944.       2018.       2095.       2090.       1987.       1855.    
        1828.       1856.       1843.       1827.       1809.       1789.       1769.       1747.       1724.       1711.    
        1699.       1685.       1669.       1654.       1640.       1625.       1609.       1595.       1581.       1569.    
        1558.       1545.       1532.       1520.       1507.       1494.       1481.       1468.       1455.       1443.    
        1430.       1417.       1405.       1394.       1383.       1371.    
 130    1630.       1620.       1622.       1637.       1684.       1701.       1719.       1719.       1736.       1741.    
        1732.       1742.       1770.       1772.       1761.       1751.       1759.       1758.       1768.       1756.    
        1747.       1747.       1766.       1801.       1822.       1832.       1840.       1846.       1850.       1855.    
        1859.       1863.       1867.       1873.       1913.       1998.       2098.       2174.       2140.       2004.    
        1839.       1788.       1832.       1834.       1817.       1798.       1778.       1757.       1734.       1709.    
        1689.       1679.       1664.       1649.       1635.       1621.       1607.       1590.       1575.       1561.    
        1549.       1538.       1525.       1512.       1500.       1487.       1473.       1460.       1448.       1435.    
        1422.       1409.       1397.       1385.       1373.       1362.    
 131    1611.       1619.       1625.       1647.       1672.       1690.       1698.       1735.       1744.       1722.    
        1699.       1718.       1745.       1751.       1745.       1742.       1740.       1748.       1754.       1755.    
        1764.       1777.       1788.       1799.       1807.       1817.       1826.       1833.       1837.       1841.    
        1845.       1849.       1853.       1858.       1866.       1963.       2075.       2195.       2256.       2190.    
        2021.       1823.       1746.       1792.       1825.       1809.       1789.       1768.       1746.       1723.    
        1697.       1670.       1654.       1643.       1630.       1616.       1602.       1588.       1571.       1556.    
        1542.       1529.       1518.       1505.       1493.       1480.       1467.       1453.       1440.       1428.    
        1415.       1402.       1389.       1377.       1364.       1352.    
 # Output Control file created on 9/8/2020 by ModelMuse version 4.2.0.0.

 OUTPUT CONTROL IS SPECIFIED ONLY AT TIME STEPS FOR WHICH OUTPUT IS DESIRED
 HEADS WILL BE SAVED WITH FORMAT: (10(1X1PE13.5))     
 SAVED HEADS WILL BE LABELED
 DRAWDOWN WILL BE SAVED WITH FORMAT: (10(1X1PE13.5))     
 SAVED DRAWDOWN WILL BE LABELED
 COMPACT CELL-BY-CELL BUDGET FILES WILL BE WRITTEN
 AUXILIARY DATA WILL BE SAVED IN CELL-BY-CELL BUDGET FILES
 HEAD PRINT FORMAT CODE IS   0    DRAWDOWN PRINT FORMAT CODE IS   0
 HEADS WILL BE SAVED ON UNIT   37    DRAWDOWNS WILL BE SAVED ON UNIT   38

 ZONE OPTION, INPUT READ FROM UNIT 5015
 # Zone (ZONE) File created on 1/26/2022 by ModelMuse version 4.3.0.0.
     4 ZONE ARRAYS



             ZONE ARRAY: hk01_Z1   
 READING ON UNIT 5015 WITH FORMAT: (FREE)              

          1     2     3     4     5     6     7     8     9    10    11    12    13    14    15    16    17    18    19    20
         21    22    23    24    25    26    27    28    29    30    31    32    33    34    35    36    37    38    39    40
         41    42    43    44    45    46    47    48    49    50    51    52    53    54    55    56    57    58    59    60
         61    62    63    64    65    66    67    68    69    70    71    72    73    74    75    76
 ............................................................................................................................
   1      0     0     0     0     0     0     0     0     0     0     0     0     0     0     0     0     0     0     0     0
          0     0     0     0     0     0     0     0     0     0     0     0     0     0     0     0     0     0     0     0
          0     0     0     0     0     0     0     0     0     0     0     1     1     0     0     0     0     0     0     0
          0     0     0     0     0     0     0     0     0     0     0     1     1     1     0     1
   2      0     0     0     0     0     0     0     0     0     0     0     0     0     0     0     0     0     0     0     0
          0     0     0     0     0     0     0     0     0     0     0     0     0     0     0     0     0     0     0     0
          0     0     0     0     0     0     0     0     0     0     0     1     1     1     0     0     0     0     0     0
          0     0     0     0     0     0     0     1     1     1     1     1     1     1     1     1
   3      0     0     0     0     0     0     0     0     0     0     0     0     0     0     0     0     0     0     0     0
          0     0     0     0     0     0     0     0     0     0     0     0     0     0     0     0     0     0     0     0
          0     0     0     0     0     0     0     0     0     0     0     1     1     1     0     0     0     0     0     0
          0     0     1     1     1     1     1     1     1     1     1     1     1     1     1     1
   4      0     0     0     0     0     0     0     0     0     0     0     0     0     0     0     0     0     0     0     0
          0     0     0     0     0     0     0     0     0     0     0     0     0     0     0     0     0     0     0     0
          0     0     0     0     0     0     0     0     0     0     1     1     1     1     1     0     0     1     1     1
          1     1     1     1     1     1     1     1     1     1     1     1     1     1     1     1
   5      0     0     0     0     0     0     0     0     0     0     0     0     0     0     0     0     0     0     0     0
          0     0     0     0     0     0     0     0     0     0     0     0     0     0     0     0     0     0     0     0
          0     0     0     0     0     0     0     0     0     0     1     1     1     1     1     1     1     1     1     1
          1     1     1     1     1     1     1     1     1     1     1     1     1     1     1     0
   6      0     0     0     0     0     0     0     0     0     0     0     0     0     0     0     0     0     0     0     0
          0     0     0     0     0     0     0     0     0     0     0     0     0     0     0     0     0     0     0     0
          0     0     0     0     0     0     0     0     0     1     1     1     1     1     1     1     1     1     1     1
          1     1     1     1     1     1     1     1     1     1     1     1     1     1     1     0
   7      0     0     0     0     0     0     0     0     0     0     0     0     0     0     0     0     0     0     0     0
          0     0     0     0     0     0     0     0     0     0     0     0     0     0     0     0     0     0     0     0
          0     0     0     0     0     0     0     0     0     1     1     1     1     1     1     1     1     1     1     1
          1     1     1     1     1     1     1     1     1     1     1     1     1     1     1     0
   8      0     0     0     0     0     0     0     0     0     0     0     0     0     0     0     0     0     0     0     0
          0     0     0     0     0     0     0     0     0     0     0     0     0     0     0     0     0     0     0     0
          0     0     0     0     0     0     0     0     1     1     1     1     1     1     1     1     1     1     1     1
          1     1     1     1     1     1     1     1     1     1     1     1     1     1     1     1
   9      0     0     0     0     0     0     0     0     0     0     0     0     0     0     0     0     0     0     0     0
          0     0     0     0     0     0     0     0     0     0     0     0     0     0     0     0     0     0     0     0
          0     0     0     0     0     0     0     1     1     1     1     1     1     1     1     1     1     1     1     1
          1     1     1     1     1     1     1     1     1     1     1     1     1     1     1     1
  10      0     0     0     0     0     0     0     0     0     0     0     0     0     0     0     0     0     0     0     0
          0     0     0     0     0     0     0     0     0     0     0     0     0     0     0     0     0     0     0     0
          0     0     0     0     0     0     1     1     1     1     1     1     1     1     1     1     1     1     1     1
          1     1     1     1     1     1     1     1     1     1     1     1     1     1     1     1
  11      0     0     0     0     0     0     0     0     0     0     0     0     0     0     0     0     0     0     0     0
          0     0     0     0     0     0     0     0     0     0     0     0     0     0     0     0     0     0     0     0
          0     0     0     0     0     1     1     1     1     1     1     1     1     1     1     1     1     1     1     1
          1     1     1     1     1     1     1     1     1     1     1     1     1     1     1     0
  12      0     0     0     0     0     0     0     0     0     0     0     0     0     0     0     0     0     0     0     0
          0     0     0     0     0     0     0     0     0     0     0     0     0     0     0     0     0     0     0     0
          0     0     0     0     1     1     1     1     1     1     1     1     1     1     1     1     1     1     1     1
          1     1     1     1     1     1     1     1     1     1     1     1     1     1     1     0
  13      0     0     0     0     0     0     0     0     0     0     0     0     0     0     0     0     0     0     0     0
          0     0     0     0     0     0     0     0     0     0     0     0     0     0     0     0     0     0     0     0
          0     0     0     1     1     1     1     1     1     1     1     1     1     1     1     1     1     1     1     1
          1     1     1     1     1     1     1     1     1     1     1     1     1     1     1     0
  14      0     0     0     0     0     0     0     0     0     0     0     0     0     0     0     0     0     0     0     0
          0     0     0     0     0     0     0     0     0     0     0     0     0     0     0     0     0     0     0     0
          0     0     1     1     1     1     1     1     1     1     1     1     1     1     1     1     1     1     1     1
          1     1     1     1     1     1     1     1     1     1     1     1     1     1     1     1
  15      0     0     0     0     0     0     0     0     0     0     0     0     0     0     0     0     0     0     0     0
          0     0     0     0     0     0     0     0     0     0     0     0     0     0     0     0     0     0     0     0
          0     1     1     1     1     1     1     1     1     1     1     1     1     1     1     1     1     1     1     1
          1     1     1     1     1     1     1     1     1     1     1     1     1     1     1     1
  16      0     0     0     0     0     0     0     0     0     0     0     0     0     0     0     0     0     0     0     0
          0     0     0     0     0     0     0     0     0     0     0     0     0     0     0     0     0     0     0     0
          1     1     1     1     1     1     1     1     1     1     1     1     1     1     1     1     1     1     1     1
          1     1     1     1     1     1     1     1     1     1     1     1     1     1     1     0
  17      0     0     0     0     0     0     0     0     0     0     0     0     0     0     0     0     0     0     0     0
          0     0     0     0     0     0     0     0     0     0     0     0     0     0     0     0     0     0     0     1
          1     1     1     1     1     1     1     1     1     1     1     1     1     1     1     1     1     1     1     1
          1     1     1     1     1     1     1     1     1     1     1     1     1     1     1     1
  18      0     0     0     0     0     0     0     0     0     0     0     0     0     0     0     0     0     0     0     0
          0     0     0     0     0     0     0     0     0     0     0     0     0     0     0     0     0     0     1     1
          1     1     1     1     1     1     1     1     1     1     1     1     1     1     1     1     1     1     1     1
          1     1     1     1     1     1     1     1     1     1     1     1     1     1     1     1
  19      0     0     0     0     0     0     0     0     0     0     0     0     0     0     0     0     0     0     0     0
          0     0     0     0     0     0     0     0     0     0     0     0     0     0     0     0     0     1     1     1
          1     1     1     1     1     1     1     1     1     1     1     1     1     1     1     1     1     1     1     1
          1     1     1     1     1     1     1     1     1     1     1     1     1     1     1     1
  20      0     0     0     0     0     0     0     0     0     0     0     0     0     0     0     0     0     0     0     0
          0     0     0     0     0     0     0     0     0     0     0     0     0     0     0     0     1     1     1     1
          1     1     1     1     1     1     1     1     1     1     1     1     1     1     1     1     1     1     1     1
          1     1     1     1     1     1     1     1     1     1     1     1     1     1     1     1
  21      1     1     0     0     0     0     0     0     0     0     0     0     0     0     0     0     0     0     0     0
          0     0     0     0     0     0     0     0     0     0     0     0     0     0     0     1     1     1     1     1
          1     1     1     1     1     1     1     1     1     1     1     1     1     1     1     1     1     1     1     1
          1     1     1     1     1     1     1     1     1     1     1     1     1     1     1     1
  22      1     1     1     1     1     0     0     0     0     0     0     0     0     0     0     0     0     0     0     0
          0     0     0     0     0     0     0     0     0     0     0     0     1     1     1     1     1     1     1     1
          1     1     1     1     1     1     1     1     1     1     1     1     1     1     1     1     1     1     1     1
          1     1     1     1     1     1     1     1     1     1     1     1     1     1     1     1
  23      1     1     1     1     1     1     1     0     0     0     0     0     0     0     0     0     0     0     0     0
          0     0     0     0     0     0     0     0     0     0     0     0     1     1     1     1     1     1     1     1
          1     1     1     1     1     1     1     1     1     1     1     1     1     1     1     1     1     1     1     1
          1     1     1     1     1     1     1     1     1     1     1     1     1     1     1     1
  24      1     1     1     1     1     1     1     1     1     1     0     0     0     0     0     0     0     0     0     0
          0     0     0     0     0     0     0     0     0     0     0     0     1     1     1     1     1     1     1     1
          1     1     1     1     1     1     1     1     1     1     1     1     1     1     1     1     1     1     1     1
          1     1     1     1     1     1     1     1     1     1     1     1     1     1     1     1
  25      1     1     1     1     1     1     1     1     1     1     1     1     1     0     0     0     0     0     0     0
          0     0     0     0     0     0     0     0     0     1     1     1     1     1     1     1     1     1     1     1
          1     1     1     1     1     1     1     1     1     1     1     1     1     1     1     1     1     1     1     1
          1     1     1     1     1     1     1     1     1     1     1     1     1     1     1     1
  26      1     1     1     1     1     1     1     1     1     1     1     1     1     1     1     1     1     0     0     0
          0     0     0     0     0     0     1     1     1     1     1     1     1     1     1     1     1     1     1     1
          1     1     1     1     1     1     1     1     1     1     1     1     1     1     1     1     1     1     1     1
          1     1     1     1     1     1     1     1     1     1     1     1     1     1     1     1
  27      1     1     1     1     1     1     1     1     1     1     1     1     1     1     1     1     1     1     1     1
          1     1     1     1     1     1     1     1     1     1     1     1     1     1     1     1     1     1     1     1
          1     1     1     1     1     1     1     1     1     1     1     1     1     1     1     1     1     1     1     1
          1     1     1     1     1     1     1     1     1     1     1     1     1     1     1     0
  28      1     1     1     1     1     1     1     1     1     1     1     1     1     1     1     1     1     1     1     1
          1     1     1     1     1     1     1     1     1     1     1     1     1     1     1     1     1     1     1     1
          1     1     1     1     1     1     1     1     1     1     1     1     1     1     1     1     1     1     1     1
          1     1     1     1     1     1     1     1     1     1     1     1     1     1     1     0
  29      1     1     1     1     1     1     1     1     1     1     1     1     1     1     1     1     1     1     1     1
          1     1     1     1     1     1     1     1     1     1     1     1     1     1     1     1     1     1     1     1
          1     1     1     1     1     1     1     1     1     1     1     1     1     1     1     1     1     1     1     1
          1     1     1     1     1     1     1     1     1     1     1     1     1     1     1     0
  30      1     1     1     1     1     1     1     1     1     1     1     1     1     1     1     1     1     1     1     1
          1     1     1     1     1     1     1     1     1     1     1     1     1     1     1     1     1     1     1     1
          1     1     1     1     1     1     1     1     1     1     1     1     1     1     1     1     1     1     1     1
          1     1     1     1     1     1     1     1     1     1     1     1     1     1     1     0
  31      1     1     1     1     1     1     1     1     1     1     1     1     1     1     1     1     1     1     1     1
          1     1     1     1     1     1     1     1     1     1     1     1     1     1     1     1     1     1     1     1
          1     1     1     1     1     1     1     1     1     1     1     1     1     1     1     1     1     1     1     1
          1     1     1     1     1     1     1     1     1     1     1     1     1     1     0     0
  32      0     1     1     1     1     1     1     1     1     1     1     1     1     1     1     1     1     1     1     1
          1     1     1     1     1     1     1     1     1     1     1     1     1     1     1     1     1     1     1     1
          1     1     1     1     1     1     1     1     1     1     1     1     1     1     1     1     1     1     1     1
          1     1     1     1     1     1     1     1     1     1     1     1     1     1     0     0
  33      0     0     0     1     1     1     1     1     1     1     1     1     1     1     1     1     1     1     1     1
          1     1     1     1     1     1     1     1     1     1     1     1     1     1     1     1     1     1     1     1
          1     1     1     1     1     1     1     1     1     1     1     1     1     1     1     1     1     1     1     1
          1     1     1     1     1     1     1     1     1     1     1     1     1     0     0     0
  34      0     0     0     0     0     1     1     1     1     1     1     1     1     1     1     1     1     1     1     1
          1     1     1     1     1     1     1     1     1     1     1     1     1     1     1     1     1     1     1     1
          1     1     1     1     1     1     1     1     1     1     1     1     1     1     1     1     1     1     1     1
          1     1     1     1     1     1     1     1     1     1     1     1     1     0     0     0
  35      0     0     0     0     0     0     1     1     1     1     1     1     1     1     1     1     1     1     1     1
          1     1     1     1     1     1     1     1     1     1     1     1     1     1     1     1     1     1     1     1
          1     1     1     1     1     1     1     1     1     1     1     1     1     1     1     1     1     1     1     1
          1     1     1     1     1     1     1     1     1     1     1     1     0     0     0     0
  36      0     0     0     0     0     0     0     0     1     1     1     1     1     1     1     1     1     1     1     1
          1     1     1     1     1     1     1     1     1     1     1     1     1     1     1     1     1     1     1     1
          1     1     1     1     1     1     1     1     1     1     1     1     1     1     1     1     1     1     1     1
          1     1     1     1     1     1     1     1     1     1     1     1     0     0     0     0
  37      1     1     1     0     0     0     0     0     0     0     1     1     1     1     1     1     1     1     1     1
          1     1     1     1     1     1     1     1     1     1     1     1     1     1     1     1     1     1     1     1
          1     1     1     1     1     1     1     1     1     1     1     1     1     1     1     1     1     1     1     1
          1     1     1     1     1     1     1     1     1     1     1     1     0     0     0     0
  38      1     1     1     1     1     1     1     0     0     0     0     1     1     1     1     1     1     1     1     1
          1     1     1     1     1     1     1     1     1     1     1     1     1     1     1     1     1     1     1     1
          1     1     1     1     1     1     1     1     1     1     1     1     1     1     1     1     1     1     1     1
          1     1     1     1     1     1     1     1     1     0     1     1     0     0     0     0
  39      1     1     1     1     1     1     1     1     1     1     1     0     0     1     1     1     1     1     1     1
          1     1     1     1     1     1     1     1     1     1     1     1     1     1     1     1     1     1     1     1
          1     1     1     1     1     1     1     1     1     1     1     1     1     1     1     1     1     1     1     1
          1     1     1     1     1     1     1     1     1     1     1     0     0     0     0     0
  40      1     1     1     1     1     1     1     1     1     1     1     1     1     1     1     1     1     1     1     1
          1     1     1     1     1     1     1     1     1     1     1     1     1     1     1     1     1     1     1     1
          1     1     1     1     1     1     1     1     1     1     1     1     1     1     1     1     1     1     1     1
          1     1     1     1     1     1     1     1     1     1     1     0     0     0     0     0
  41      1     1     1     1     1     1     1     1     1     1     1     1     1     1     1     1     1     1     1     1
          1     1     1     1     1     1     1     1     1     1     1     1     1     1     1     1     1     1     1     1
          1     1     1     1     1     1     1     1     1     1     1     1     1     1     1     1     1     1     1     1
          1     1     1     1     1     1     1     1     1     1     1     1     0     0     0     0
  42      1     1     1     1     1     1     1     1     1     1     1     1     1     1     1     1     1     1     1     1
          1     1     1     1     1     1     1     1     1     1     1     1     1     1     1     1     1     1     1     1
          1     1     1     1     1     1     1     1     1     1     1     1     1     1     1     1     1     1     1     1
          1     1     1     1     1     1     1     1     1     1     1     1     0     0     0     0
  43      1     1     1     1     1     1     1     1     1     1     1     1     1     1     1     1     1     1     1     1
          1     1     1     1     1     1     1     1     1     1     1     1     1     1     1     1     1     1     1     1
          1     1     1     1     1     1     1     1     1     1     1     1     1     1     1     1     1     1     1     1
          1     1     1     1     1     1     1     1     1     1     1     1     1     0     0     0
  44      1     1     1     1     1     1     1     1     1     1     1     1     1     1     1     1     1     1     1     1
          1     1     1     1     1     1     1     1     1     1     1     1     1     1     1     1     1     1     1     1
          1     1     1     1     1     1     1     1     1     1     1     1     1     1     1     1     1     1     1     1
          1     1     1     1     1     1     1     1     1     1     1     1     1     1     0     0
  45      1     1     1     1     1     1     1     1     1     1     1     1     1     1     1     1     1     1     1     1
          1     1     1     1     1     1     1     1     1     1     1     1     1     1     1     1     1     1     1     1
          1     1     1     1     1     1     1     1     1     1     1     1     1     1     1     1     1     1     1     1
          1     1     1     1     1     1     1     1     1     1     1     1     1     1     1     0
  46      1     1     1     1     1     1     1     1     1     1     1     1     1     1     1     1     1     1     1     1
          1     1     1     1     1     1     1     1     1     1     1     1     1     1     1     1     1     1     1     1
          1     1     1     1     1     1     1     1     1     1     1     1     1     1     1     1     1     1     1     1
          1     1     1     1     1     1     1     1     1     1     1     1     1     1     1     1
  47      1     1     1     1     1     1     1     1     1     1     1     1     1     1     1     1     1     1     1     1
          1     1     1     1     1     1     1     1     1     1     1     1     1     1     1     1     1     1     1     1
          1     1     1     1     1     1     1     1     1     1     1     1     1     1     1     1     1     1     1     1
          1     1     1     1     1     1     1     1     1     1     1     1     1     1     1     1
  48      1     1     1     1     1     1     1     1     1     1     1     1     1     1     1     1     1     1     1     1
          1     1     1     1     1     1     1     1     1     1     1     1     1     1     1     1     1     1     1     1
          1     1     1     1     1     1     1     1     1     1     1     1     1     1     1     1     1     1     1     1
          1     1     1     1     1     1     1     1     1     1     1     1     1     1     1     1
  49      1     1     1     1     1     1     1     1     1     1     1     1     1     1     1     1     1     1     1     1
          1     1     1     1     1     1     1     1     1     1     1     1     1     1     1     1     1     1     1     1
          1     1     1     1     1     1     1     1     1     1     1     1     1     1     1     1     1     1     1     1
          1     1     1     1     1     1     1     1     1     1     1     1     1     1     1     1
  50      1     1     1     1     1     1     1     1     1     1     1     1     1     1     1     1     1     1     1     1
          1     1     1     1     1     1     1     1     1     1     1     1     1     1     1     1     1     1     1     1
          1     1     1     1     1     1     1     1     1     1     1     1     1     1     1     1     1     1     1     1
          1     1     1     1     1     1     1     1     1     1     1     1     1     1     1     1
  51      1     1     1     1     1     1     1     1     1     1     1     1     1     1     1     1     1     1     1     1
          1     1     1     1     1     1     1     1     1     1     1     1     1     1     1     1     1     1     1     1
          1     1     1     1     1     1     1     1     1     1     1     1     1     1     1     1     1     1     1     1
          1     1     1     1     1     1     1     1     1     1     1     1     1     1     1     1
  52      1     1     1     1     1     1     1     1     1     1     1     1     1     1     1     1     1     1     1     1
          1     1     1     1     1     1     1     1     1     1     1     1     1     1     1     1     1     1     1     1
          1     1     1     1     1     1     1     1     1     1     1     1     1     1     1     1     1     1     1     1
          1     1     1     1     1     1     1     1     1     1     1     1     1     1     1     1
  53      1     1     1     1     1     1     1     1     1     1     1     1     1     1     1     1     1     1     1     1
          1     1     1     1     1     1     1     1     1     1     1     1     1     1     1     1     1     1     1     1
          1     1     1     1     1     1     1     1     1     1     1     1     1     1     1     1     1     1     1     1
          1     1     1     1     1     1     1     1     1     1     1     1     1     1     1     1
  54      1     1     1     1     1     1     1     1     1     1     1     1     1     1     1     1     1     1     1     1
          1     1     1     1     1     1     1     1     1     1     1     1     1     1     1     1     1     1     1     1
          1     1     1     1     1     1     1     1     1     1     1     1     1     1     1     1     1     1     1     1
          1     1     1     1     1     1     1     1     1     1     1     1     1     1     1     1
  55      1     1     1     1     1     1     1     1     1     1     1     1     1     1     1     1     1     1     1     1
          1     1     1     1     1     1     1     1     1     1     1     1     1     1     1     1     1     1     1     1
          1     1     1     1     1     1     1     1     1     1     1     1     1     1     1     1     1     1     1     1
          1     1     1     1     1     1     1     1     1     1     1     1     1     1     1     1
  56      1     1     1     1     1     1     1     1     1     1     1     1     1     1     1     1     1     1     1     1
          1     1     1     1     1     1     1     1     1     1     1     1     1     1     1     1     1     1     1     1
          1     1     1     1     1     1     1     1     1     1     1     1     1     1     1     1     1     1     1     1
          1     1     1     1     1     1     1     1     1     1     1     1     1     1     1     1
  57      1     1     1     1     1     1     1     1     1     1     1     1     1     1     1     1     1     1     1     1
          1     1     1     1     1     1     1     1     1     1     1     1     1     1     1     1     1     1     1     1
          1     1     1     1     1     1     1     1     1     1     1     1     1     1     1     1     1     1     1     1
          1     1     1     1     1     1     1     1     1     1     1     1     1     1     1     1
  58      1     1     1     1     1     1     1     1     1     1     1     1     1     1     1     1     1     1     1     1
          1     1     0     1     1     1     1     1     1     1     1     1     1     1     1     1     1     1     1     1
          1     1     1     1     1     1     1     1     1     1     1     1     1     1     1     1     1     1     1     1
          1     1     1     1     1     1     1     1     1     1     1     1     1     1     1     1
  59      1     1     1     1     1     1     1     1     1     1     1     1     1     1     1     1     1     1     1     1
          1     1     1     1     1     1     1     1     1     1     1     1     1     1     1     1     1     1     1     1
          1     1     1     1     1     1     1     1     1     1     1     1     1     1     1     1     1     1     1     1
          1     1     1     1     1     1     1     1     1     1     1     1     1     1     1     1
  60      1     1     1     1     1     1     1     1     1     1     1     1     1     1     1     1     1     1     1     1
          1     1     1     1     1     1     1     1     1     1     1     1     1     1     1     1     1     1     1     1
          1     1     1     1     1     1     1     1     1     1     1     1     1     1     1     1     1     1     1     1
          1     1     1     1     1     1     1     1     1     1     1     1     1     1     1     1
  61      1     1     1     1     1     1     1     1     1     1     1     1     1     1     1     1     1     1     1     1
          1     0     1     1     1     1     1     1     1     1     1     1     1     1     1     1     1     1     1     1
          1     1     1     1     1     1     1     1     1     1     1     1     1     1     1     1     1     1     1     1
          1     1     1     1     1     1     1     1     1     1     1     1     1     1     1     1
  62      1     1     1     1     1     1     1     1     1     1     1     1     1     1     1     1     1     1     1     1
          1     0     1     1     1     1     1     1     1     1     1     1     1     1     1     1     1     1     1     1
          1     1     1     1     1     1     1     1     1     1     1     1     1     1     1     1     1     1     1     1
          1     1     1     1     1     1     1     1     1     1     1     1     1     1     1     1
  63      1     1     1     1     1     1     1     1     1     1     1     1     1     1     1     1     1     1     1     1
          1     1     1     1     1     1     1     1     1     1     1     1     1     1     1     1     1     1     1     1
          1     1     1     1     1     1     1     1     1     1     1     1     1     1     1     1     1     1     1     1
          1     1     1     1     1     1     1     1     1     1     1     1     1     1     1     1
  64      1     1     1     1     1     1     1     1     1     1     1     1     1     1     1     1     1     1     1     1
          0     1     1     1     1     1     1     1     1     1     1     1     1     1     1     1     1     1     1     1
          1     1     1     1     1     1     1     1     1     1     1     1     1     1     1     1     1     1     1     1
          1     1     1     1     1     1     1     1     1     1     1     1     1     1     1     1
  65      1     1     1     1     1     1     1     1     1     1     1     1     1     1     1     1     1     1     1     1
          0     1     1     1     1     1     1     1     1     1     1     1     1     1     1     1     1     1     1     1
          1     1     1     1     1     1     1     1     1     1     1     1     1     1     1     1     1     1     1     1
          1     1     1     1     1     1     1     1     1     1     1     1     1     1     1     1
  66      1     1     1     1     1     1     1     1     1     1     1     1     1     1     1     1     1     1     1     1
          0     1     1     1     1     1     1     1     1     1     1     1     1     1     1     1     1     1     1     1
          1     1     1     1     1     1     1     1     1     1     1     1     1     1     1     1     1     1     1     1
          1     1     1     1     1     1     1     1     1     1     1     1     1     1     1     1
  67      1     1     1     1     1     1     1     1     1     1     1     1     1     1     1     1     1     1     1     1
          1     1     1     1     1     1     1     1     1     1     1     1     1     1     1     1     1     1     1     1
          1     1     1     1     1     1     1     1     1     1     1     1     1     1     1     1     1     1     1     1
          1     1     1     1     1     1     1     1     1     1     1     1     1     1     1     1
  68      1     1     1     1     1     1     1     1     1     1     1     1     1     1     1     1     1     1     1     0
          1     1     1     1     1     1     1     1     1     1     1     1     1     1     1     1     1     1     1     1
          1     1     1     1     1     1     1     1     1     1     1     1     1     1     1     1     1     1     1     1
          1     1     1     1     1     1     1     1     1     1     1     1     1     1     1     1
  69      1     1     1     1     1     1     1     1     1     1     1     1     1     1     1     1     1     1     1     0
          1     1     1     1     1     1     1     1     1     1     1     1     1     1     1     1     1     1     1     1
          1     1     1     1     1     1     1     1     1     1     1     1     1     1     1     1     1     1     1     1
          1     1     1     1     1     1     1     1     1     1     1     1     1     1     1     1
  70      1     1     1     1     1     1     1     1     1     1     1     1     1     1     1     1     1     1     1     0
          1     1     1     1     1     1     1     1     1     1     1     1     1     1     1     1     1     1     1     1
          1     1     1     1     1     1     1     1     1     1     1     1     1     1     1     1     1     1     1     1
          1     1     1     1     1     1     1     1     1     1     1     1     1     1     1     1
  71      1     1     1     1     1     1     1     1     1     1     1     1     1     1     1     1     1     1     0     1
          1     1     1     1     1     1     1     1     1     1     1     1     1     1     1     1     1     1     1     1
          1     1     1     1     1     1     1     1     1     1     1     1     1     1     1     1     1     1     1     1
          1     1     1     1     1     1     1     1     1     1     1     1     1     1     1     1
  72      0     0     0     0     0     0     0     0     0     0     0     0     0     0     0     0     0     0     0     0
          0     0     0     0     0     0     0     0     0     0     0     0     0     0     0     0     0     0     0     0
          0     0     0     0     0     0     0     0     0     0     0     0     0     0     0     0     0     0     0     0
          0     0     0     0     0     0     0     0     0     0     0     0     0     0     0     0
  73      0     0     0     0     0     0     0     0     0     0     0     0     0     0     0     0     0     0     0     0
          0     0     0     0     0     0     0     0     0     0     0     0     0     0     0     0     0     0     0     0
          0     0     0     0     0     0     0     0     0     0     0     0     0     0     0     0     0     0     0     0
          0     0     0     0     0     0     0     0     0     0     0     0     0     0     0     0
  74      0     0     0     0     0     0     0     0     0     0     0     0     0     0     0     0     0     0     0     0
          0     0     0     0     0     0     0     0     0     0     0     0     0     0     0     0     0     0     0     0
          0     0     0     0     0     0     0     0     0     0     0     0     0     0     0     0     0     0     0     0
          0     0     0     0     0     0     0     0     0     0     0     0     0     0     0     0
  75      0     0     0     0     0     0     0     0     0     0     0     0     0     0     0     0     0     0     0     0
          0     0     0     0     0     0     0     0     0     0     0     0     0     0     0     0     0     0     0     0
          0     0     0     0     0     0     0     0     0     0     0     0     0     0     0     0     0     0     0     0
          0     0     0     0     0     0     0     0     0     0     0     0     0     0     0     0
  76      0     0     0     0     0     0     0     0     0     0     0     0     0     0     0     0     0     0     0     0
          0     0     0     0     0     0     0     0     0     0     0     0     0     0     0     0     0     0     0     0
          0     0     0     0     0     0     0     0     0     0     0     0     0     0     0     0     0     0     0     0
          0     0     0     0     0     0     0     0     0     0     0     0     0     0     0     0
  77      0     0     0     0     0     0     0     0     0     0     0     0     0     0     0     0     0     0     0     0
          0     0     0     0     0     0     0     0     0     0     0     0     0     0     0     0     0     0     0     0
          0     0     0     0     0     0     0     0     0     0     0     0     0     0     0     0     0     0     0     0
          0     0     0     0     0     0     0     0     0     0     0     0     0     0     0     0
  78      0     0     0     0     0     0     0     0     0     0     0     0     0     0     0     0     0     0     0     0
          0     0     0     0     0     0     0     0     0     0     0     0     0     0     0     0     0     0     0     0
          0     0     0     0     0     0     0     0     0     0     0     0     0     0     0     0     0     0     0     0
          0     0     0     0     0     0     0     0     0     0     0     0     0     0     0     0
  79      0     0     0     0     0     0     0     0     0     0     0     0     0     0     0     0     0     0     0     0
          0     0     0     0     0     0     0     0     0     0     0     0     0     0     0     0     0     0     0     0
          0     0     0     0     0     0     0     0     0     0     0     0     0     0     0     0     0     0     0     0
          0     0     0     0     0     0     0     0     0     0     0     0     0     0     0     0
  80      0     0     0     0     0     0     0     0     0     0     0     0     0     0     0     0     0     0     0     0
          0     0     0     0     0     0     0     0     0     0     0     0     0     0     0     0     0     0     0     0
          0     0     0     0     0     0     0     0     0     0     0     0     0     0     0     0     0     0     0     0
          0     0     0     0     0     0     0     0     0     0     0     0     0     0     0     0
  81      0     0     0     0     0     0     0     0     0     0     0     0     0     0     0     0     0     0     0     0
          0     0     0     0     0     0     0     0     0     0     0     0     0     0     0     0     0     0     0     0
          0     0     0     0     0     0     0     0     0     0     0     0     0     0     0     0     0     0     0     0
          0     0     0     0     0     0     0     0     0     0     0     0     0     0     0     0
  82      0     0     0     0     0     0     0     0     0     0     0     0     0     0     0     0     0     0     0     0
          0     0     0     0     0     0     0     0     0     0     0     0     0     0     0     0     0     0     0     0
          0     0     0     0     0     0     0     0     0     0     0     0     0     0     0     0     0     0     0     0
          0     0     0     0     0     0     0     0     0     0     0     0     0     0     0     0
  83      0     0     0     0     0     0     0     0     0     0     0     0     0     0     0     0     0     0     0     0
          0     0     0     0     0     0     0     0     0     0     0     0     0     0     0     0     0     0     0     0
          0     0     0     0     0     0     0     0     0     0     0     0     0     0     0     0     0     0     0     0
          0     0     0     0     0     0     0     0     0     0     0     0     0     0     0     0
  84      0     0     0     0     0     0     0     0     0     0     0     0     0     0     0     0     0     0     0     0
          0     0     0     0     0     0     0     0     0     0     0     0     0     0     0     0     0     0     0     0
          0     0     0     0     0     0     0     0     0     0     0     0     0     0     0     0     0     0     0     0
          0     0     0     0     0     0     0     0     0     0     0     0     0     0     0     0
  85      0     0     0     0     0     0     0     0     0     0     0     0     0     0     0     0     0     0     0     0
          0     0     0     0     0     0     0     0     0     0     0     0     0     0     0     0     0     0     0     0
          0     0     0     0     0     0     0     0     0     0     0     0     0     0     0     0     0     0     0     0
          0     0     0     0     0     0     0     0     0     0     0     0     0     0     0     0
  86      0     0     0     0     0     0     0     0     0     0     0     0     0     0     0     0     0     0     0     0
          0     0     0     0     0     0     0     0     0     0     0     0     0     0     0     0     0     0     0     0
          0     0     0     0     0     0     0     0     0     0     0     0     0     0     0     0     0     0     0     0
          0     0     0     0     0     0     0     0     0     0     0     0     0     0     0     0
  87      0     0     0     0     0     0     0     0     0     0     0     0     0     0     0     0     0     0     0     0
          0     0     0     0     0     0     0     0     0     0     0     0     0     0     0     0     0     0     0     0
          0     0     0     0     0     0     0     0     0     0     0     0     0     0     0     0     0     0     0     0
          0     0     0     0     0     0     0     0     0     0     0     0     0     0     0     0
  88      0     0     0     0     0     0     0     0     0     0     0     0     0     0     0     0     0     0     0     0
          0     0     0     0     0     0     0     0     0     0     0     0     0     0     0     0     0     0     0     0
          0     0     0     0     0     0     0     0     0     0     0     0     0     0     0     0     0     0     0     0
          0     0     0     0     0     0     0     0     0     0     0     0     0     0     0     0
  89      0     0     0     0     0     0     0     0     0     0     0     0     0     0     0     0     0     0     0     0
          0     0     0     0     0     0     0     0     0     0     0     0     0     0     0     0     0     0     0     0
          0     0     0     0     0     0     0     0     0     0     0     0     0     0     0     0     0     0     0     0
          0     0     0     0     0     0     0     0     0     0     0     0     0     0     0     0
  90      0     0     0     0     0     0     0     0     0     0     0     0     0     0     0     0     0     0     0     0
          0     0     0     0     0     0     0     0     0     0     0     0     0     0     0     0     0     0     0     0
          0     0     0     0     0     0     0     0     0     0     0     0     0     0     0     0     0     0     0     0
          0     0     0     0     0     0     0     0     0     0     0     0     0     0     0     0
  91      0     0     0     0     0     0     0     0     0     0     0     0     0     0     0     0     0     0     0     0
          0     0     0     0     0     0     0     0     0     0     0     0     0     0     0     0     0     0     0     0
          0     0     0     0     0     0     0     0     0     0     0     0     0     0     0     0     0     0     0     0
          0     0     0     0     0     0     0     0     0     0     0     0     0     0     0     0
  92      0     0     0     0     0     0     0     0     0     0     0     0     0     0     0     0     0     0     0     0
          0     0     0     0     0     0     0     0     0     0     0     0     0     0     0     0     0     0     0     0
          0     0     0     0     0     0     0     0     0     0     0     0     0     0     0     0     0     0     0     0
          0     0     0     0     0     0     0     0     0     0     0     0     0     0     0     0
  93      0     0     0     0     0     0     0     0     0     0     0     0     0     0     0     0     0     0     0     0
          0     0     0     0     0     0     0     0     0     0     0     0     0     0     0     0     0     0     0     0
          0     0     0     0     0     0     0     0     0     0     0     0     0     0     0     0     0     0     0     0
          0     0     0     0     0     0     0     0     0     0     0     0     0     0     0     0
  94      0     0     0     0     0     0     0     0     0     0     0     0     0     0     0     0     0     0     0     0
          0     0     0     0     0     0     0     0     0     0     0     0     0     0     0     0     0     0     0     0
          0     0     0     0     0     0     0     0     0     0     0     0     0     0     0     0     0     0     0     0
          0     0     0     0     0     0     0     0     0     0     0     0     0     0     0     0
  95      0     0     0     0     0     0     0     0     0     0     0     0     0     0     0     0     0     0     0     0
          0     0     0     0     0     0     0     0     0     0     0     0     0     0     0     0     0     0     0     0
          0     0     0     0     0     0     0     0     0     0     0     0     0     0     0     0     0     0     0     0
          0     0     0     0     0     0     0     0     0     0     0     0     0     0     0     0
  96      0     0     0     0     0     0     0     0     0     0     0     0     0     0     0     0     0     0     0     0
          0     0     0     0     0     0     0     0     0     0     0     0     0     0     0     0     0     0     0     0
          0     0     0     0     0     0     0     0     0     0     0     0     0     0     0     0     0     0     0     0
          0     0     0     0     0     0     0     0     0     0     0     0     0     0     0     0
  97      0     0     0     0     0     0     0     0     0     0     0     0     0     0     0     0     0     0     0     0
          0     0     0     0     0     0     0     0     0     0     0     0     0     0     0     0     0     0     0     0
          0     0     0     0     0     0     0     0     0     0     0     0     0     0     0     0     0     0     0     0
          0     0     0     0     0     0     0     0     0     0     0     0     0     0     0     0
  98      0     0     0     0     0     0     0     0     0     0     0     0     0     0     0     0     0     0     0     0
          0     0     0     0     0     0     0     0     0     0     0     0     0     0     0     0     0     0     0     0
          0     0     0     0     0     0     0     0     0     0     0     0     0     0     0     0     0     0     0     0
          0     0     0     0     0     0     0     0     0     0     0     0     0     0     0     0
  99      0     0     0     0     0     0     0     0     0     0     0     0     0     0     0     0     0     0     0     0
          0     0     0     0     0     0     0     0     0     0     0     0     0     0     0     0     0     0     0     0
          0     0     0     0     0     0     0     0     0     0     0     0     0     0     0     0     0     0     0     0
          0     0     0     0     0     0     0     0     0     0     0     0     0     0     0     0
 100      0     0     0     0     0     0     0     0     0     0     0     0     0     0     0     0     0     0     0     0
          0     0     0     0     0     0     0     0     0     0     0     0     0     0     0     0     0     0     0     0
          0     0     0     0     0     0     0     0     0     0     0     0     0     0     0     0     0     0     0     0
          0     0     0     0     0     0     0     0     0     0     0     0     0     0     0     0
 101      0     0     0     0     0     0     0     0     0     0     0     0     0     0     0     0     0     0     0     0
          0     0     0     0     0     0     0     0     0     0     0     0     0     0     0     0     0     0     0     0
          0     0     0     0     0     0     0     0     0     0     0     0     0     0     0     0     0     0     0     0
          0     0     0     0     0     0     0     0     0     0     0     0     0     0     0     0
 102      0     0     0     0     0     0     0     0     0     0     0     0     0     0     0     0     0     0     0     0
          0     0     0     0     0     0     0     0     0     0     0     0     0     0     0     0     0     0     0     0
          0     0     0     0     0     0     0     0     0     0     0     0     0     0     0     0     0     0     0     0
          0     0     0     0     0     0     0     0     0     0     0     0     0     0     0     0
 103      0     0     0     0     0     0     0     0     0     0     0     0     0     0     0     0     0     0     0     0
          0     0     0     0     0     0     0     0     0     0     0     0     0     0     0     0     0     0     0     0
          0     0     0     0     0     0     0     0     0     0     0     0     0     0     0     0     0     0     0     0
          0     0     0     0     0     0     0     0     0     0     0     0     0     0     0     0
 104      0     0     0     0     0     0     0     0     0     0     0     0     0     0     0     0     0     0     0     0
          0     0     0     0     0     0     0     0     0     0     0     0     0     0     0     0     0     0     0     0
          0     0     0     0     0     0     0     0     0     0     0     0     0     0     0     0     0     0     0     0
          0     0     0     0     0     0     0     0     0     0     0     0     0     0     0     0
 105      0     0     0     0     0     0     0     0     0     0     0     0     0     0     0     0     0     0     0     0
          0     0     0     0     0     0     0     0     0     0     0     0     0     0     0     0     0     0     0     0
          0     0     0     0     0     0     0     0     0     0     0     0     0     0     0     0     0     0     0     0
          0     0     0     0     0     0     0     0     0     0     0     0     0     0     0     0
 106      0     0     0     0     0     0     0     0     0     0     0     0     0     0     0     0     0     0     0     0
          0     0     0     0     0     0     0     0     0     0     0     0     0     0     0     0     0     0     0     0
          0     0     0     0     0     0     0     0     0     0     0     0     0     0     0     0     0     0     0     0
          0     0     0     0     0     0     0     0     0     0     0     0     0     0     0     0
 107      0     0     0     0     0     0     0     0     0     0     0     0     0     0     0     0     0     0     0     0
          0     0     0     0     0     0     0     0     0     0     0     0     0     0     0     0     0     0     0     0
          0     0     0     0     0     0     0     0     0     0     0     0     0     0     0     0     0     0     0     0
          0     0     0     0     0     0     0     0     0     0     0     0     0     0     0     0
 108      0     0     0     0     0     0     0     0     0     0     0     0     0     0     0     0     0     0     0     0
          0     0     0     0     0     0     0     0     0     0     0     0     0     0     0     0     0     0     0     0
          0     0     0     0     0     0     0     0     0     0     0     0     0     0     0     0     0     0     0     0
          0     0     0     0     0     0     0     0     0     0     0     0     0     0     0     0
 109      0     0     0     0     0     0     0     0     0     0     0     0     0     0     0     0     0     0     0     0
          0     0     0     0     0     0     0     0     0     0     0     0     0     0     0     0     0     0     0     0
          0     0     0     0     0     0     0     0     0     0     0     0     0     0     0     0     0     0     0     0
          0     0     0     0     0     0     0     0     0     0     0     0     0     0     0     0
 110      0     0     0     0     0     0     0     0     0     0     0     0     0     0     0     0     0     0     0     0
          0     0     0     0     0     0     0     0     0     0     0     0     0     0     0     0     0     0     0     0
          0     0     0     0     0     0     0     0     0     0     0     0     0     0     0     0     0     0     0     0
          0     0     0     0     0     0     0     0     0     0     0     0     0     0     0     0
 111      0     0     0     0     0     0     0     0     0     0     0     0     0     0     0     0     0     0     0     0
          0     0     0     0     0     0     0     0     0     0     0     0     0     0     0     0     0     0     0     0
          0     0     0     0     0     0     0     0     0     0     0     0     0     0     0     0     0     0     0     0
          0     0     0     0     0     0     0     0     0     0     0     0     0     0     0     0
 112      0     0     0     0     0     0     0     0     0     0     0     0     0     0     0     0     0     0     0     0
          0     0     0     0     0     0     0     0     0     0     0     0     0     0     0     0     0     0     0     0
          0     0     0     0     0     0     0     0     0     0     0     0     0     0     0     0     0     0     0     0
          0     0     0     0     0     0     0     0     0     0     0     0     0     0     0     0
 113      0     0     0     0     0     0     0     0     0     0     0     0     0     0     0     0     0     0     0     0
          0     0     0     0     0     0     0     0     0     0     0     0     0     0     0     0     0     0     0     0
          0     0     0     0     0     0     0     0     0     0     0     0     0     0     0     0     0     0     0     0
          0     0     0     0     0     0     0     0     0     0     0     0     0     0     0     0
 114      0     0     0     0     0     0     0     0     0     0     0     0     0     0     0     0     0     0     0     0
          0     0     0     0     0     0     0     0     0     0     0     0     0     0     0     0     0     0     0     0
          0     0     0     0     0     0     0     0     0     0     0     0     0     0     0     0     0     0     0     0
          0     0     0     0     0     0     0     0     0     0     0     0     0     0     0     0
 115      0     0     0     0     0     0     0     0     0     0     0     0     0     0     0     0     0     0     0     0
          0     0     0     0     0     0     0     0     0     0     0     0     0     0     0     0     0     0     0     0
          0     0     0     0     0     0     0     0     0     0     0     0     0     0     0     0     0     0     0     0
          0     0     0     0     0     0     0     0     0     0     0     0     0     0     0     0
 116      0     0     0     0     0     0     0     0     0     0     0     0     0     0     0     0     0     0     0     0
          0     0     0     0     0     0     0     0     0     0     0     0     0     0     0     0     0     0     0     0
          0     0     0     0     0     0     0     0     0     0     0     0     0     0     0     0     0     0     0     0
          0     0     0     0     0     0     0     0     0     0     0     0     0     0     0     0
 117      0     0     0     0     0     0     0     0     0     0     0     0     0     0     0     0     0     0     0     0
          0     0     0     0     0     0     0     0     0     0     0     0     0     0     0     0     0     0     0     0
          0     0     0     0     0     0     0     0     0     0     0     0     0     0     0     0     0     0     0     0
          0     0     0     0     0     0     0     0     0     0     0     0     0     0     0     0
 118      0     0     0     0     0     0     0     0     0     0     0     0     0     0     0     0     0     0     0     0
          0     0     0     0     0     0     0     0     0     0     0     0     0     0     0     0     0     0     0     0
          0     0     0     0     0     0     0     0     0     0     0     0     0     0     0     0     0     0     0     0
          0     0     0     0     0     0     0     0     0     0     0     0     0     0     0     0
 119      0     0     0     0     0     0     0     0     0     0     0     0     0     0     0     0     0     0     0     0
          0     0     0     0     0     0     0     0     0     0     0     0     0     0     0     0     0     0     0     0
          0     0     0     0     0     0     0     0     0     0     0     0     0     0     0     0     0     0     0     0
          0     0     0     0     0     0     0     0     0     0     0     0     0     0     0     0
 120      0     0     0     0     0     0     0     0     0     0     0     0     0     0     0     0     0     0     0     0
          0     0     0     0     0     0     0     0     0     0     0     0     0     0     0     0     0     0     0     0
          0     0     0     0     0     0     0     0     0     0     0     0     0     0     0     0     0     0     0     0
          0     0     0     0     0     0     0     0     0     0     0     0     0     0     0     0
 121      0     0     0     0     0     0     0     0     0     0     0     0     0     0     0     0     0     0     0     0
          0     0     0     0     0     0     0     0     0     0     0     0     0     0     0     0     0     0     0     0
          0     0     0     0     0     0     0     0     0     0     0     0     0     0     0     0     0     0     0     0
          0     0     0     0     0     0     0     0     0     0     0     0     0     0     0     0
 122      0     0     0     0     0     0     0     0     0     0     0     0     0     0     0     0     0     0     0     0
          0     0     0     0     0     0     0     0     0     0     0     0     0     0     0     0     0     0     0     0
          0     0     0     0     0     0     0     0     0     0     0     0     0     0     0     0     0     0     0     0
          0     0     0     0     0     0     0     0     0     0     0     0     0     0     0     0
 123      0     0     0     0     0     0     0     0     0     0     0     0     0     0     0     0     0     0     0     0
          0     0     0     0     0     0     0     0     0     0     0     0     0     0     0     0     0     0     0     0
          0     0     0     0     0     0     0     0     0     0     0     0     0     0     0     0     0     0     0     0
          0     0     0     0     0     0     0     0     0     0     0     0     0     0     0     0
 124      0     0     0     0     0     0     0     0     0     0     0     0     0     0     0     0     0     0     0     0
          0     0     0     0     0     0     0     0     0     0     0     0     0     0     0     0     0     0     0     0
          0     0     0     0     0     0     0     0     0     0     0     0     0     0     0     0     0     0     0     0
          0     0     0     0     0     0     0     0     0     0     0     0     0     0     0     0
 125      0     0     0     0     0     0     0     0     0     0     0     0     0     0     0     0     0     0     0     0
          0     0     0     0     0     0     0     0     0     0     0     0     0     0     0     0     0     0     0     0
          0     0     0     0     0     0     0     0     0     0     0     0     0     0     0     0     0     0     0     0
          0     0     0     0     0     0     0     0     0     0     0     0     0     0     0     0
 126      0     0     0     0     0     0     0     0     0     0     0     0     0     0     0     0     0     0     0     0
          0     0     0     0     0     0     0     0     0     0     0     0     0     0     0     0     0     0     0     0
          0     0     0     0     0     0     0     0     0     0     0     0     0     0     0     0     0     0     0     0
          0     0     0     0     0     0     0     0     0     0     0     0     0     0     0     0
 127      0     0     0     0     0     0     0     0     0     0     0     0     0     0     0     0     0     0     0     0
          0     0     0     0     0     0     0     0     0     0     0     0     0     0     0     0     0     0     0     0
          0     0     0     0     0     0     0     0     0     0     0     0     0     0     0     0     0     0     0     0
          0     0     0     0     0     0     0     0     0     0     0     0     0     0     0     0
 128      0     0     0     0     0     0     0     0     0     0     0     0     0     0     0     0     0     0     0     0
          0     0     0     0     0     0     0     0     0     0     0     0     0     0     0     0     0     0     0     0
          0     0     0     0     0     0     0     0     0     0     0     0     0     0     0     0     0     0     0     0
          0     0     0     0     0     0     0     0     0     0     0     0     0     0     0     0
 129      0     0     0     0     0     0     0     0     0     0     0     0     0     0     0     0     0     0     0     0
          0     0     0     0     0     0     0     0     0     0     0     0     0     0     0     0     0     0     0     0
          0     0     0     0     0     0     0     0     0     0     0     0     0     0     0     0     0     0     0     0
          0     0     0     0     0     0     0     0     0     0     0     0     0     0     0     0
 130      0     0     0     0     0     0     0     0     0     0     0     0     0     0     0     0     0     0     0     0
          0     0     0     0     0     0     0     0     0     0     0     0     0     0     0     0     0     0     0     0
          0     0     0     0     0     0     0     0     0     0     0     0     0     0     0     0     0     0     0     0
          0     0     0     0     0     0     0     0     0     0     0     0     0     0     0     0
 131      0     0     0     0     0     0     0     0     0     0     0     0     0     0     0     0     0     0     0     0
          0     0     0     0     0     0     0     0     0     0     0     0     0     0     0     0     0     0     0     0
          0     0     0     0     0     0     0     0     0     0     0     0     0     0     0     0     0     0     0     0
          0     0     0     0     0     0     0     0     0     0     0     0     0     0     0     0



             ZONE ARRAY: hk02_Z1   
 READING ON UNIT 5015 WITH FORMAT: (FREE)              

          1     2     3     4     5     6     7     8     9    10    11    12    13    14    15    16    17    18    19    20
         21    22    23    24    25    26    27    28    29    30    31    32    33    34    35    36    37    38    39    40
         41    42    43    44    45    46    47    48    49    50    51    52    53    54    55    56    57    58    59    60
         61    62    63    64    65    66    67    68    69    70    71    72    73    74    75    76
 ............................................................................................................................
   1      0     0     0     0     0     0     0     0     0     0     0     0     0     0     0     0     0     0     0     0
          0     0     0     0     0     0     0     0     0     0     0     0     0     0     0     0     0     0     0     0
          0     0     0     0     0     0     0     0     0     0     0     0     0     0     0     0     0     0     0     0
          0     0     0     0     0     0     0     0     0     0     0     0     0     0     0     0
   2      0     0     0     0     0     0     0     0     0     0     0     0     0     0     0     0     0     0     0     0
          0     0     0     0     0     0     0     0     0     0     0     0     0     0     0     0     0     0     0     0
          0     0     0     0     0     0     0     0     0     0     0     0     0     0     0     0     0     0     0     0
          0     0     0     0     0     0     0     0     0     0     0     0     0     0     0     0
   3      0     0     0     0     0     0     0     0     0     0     0     0     0     0     0     0     0     0     0     0
          0     0     0     0     0     0     0     0     0     0     0     0     0     0     0     0     0     0     0     0
          0     0     0     0     0     0     0     0     0     0     0     0     0     0     0     0     0     0     0     0
          0     0     0     0     0     0     0     0     0     0     0     0     0     0     0     0
   4      0     0     0     0     0     0     0     0     0     0     0     0     0     0     0     0     0     0     0     0
          0     0     0     0     0     0     0     0     0     0     0     0     0     0     0     0     0     0     0     0
          0     0     0     0     0     0     0     0     0     0     0     0     0     0     0     0     0     0     0     0
          0     0     0     0     0     0     0     0     0     0     0     0     0     0     0     0
   5      0     0     0     0     0     0     0     0     0     0     0     0     0     0     0     0     0     0     0     0
          0     0     0     0     0     0     0     0     0     0     0     0     0     0     0     0     0     0     0     0
          0     0     0     0     0     0     0     0     0     0     0     0     0     0     0     0     0     0     0     0
          0     0     0     0     0     0     0     0     0     0     0     0     0     0     0     0
   6      0     0     0     0     0     0     0     0     0     0     0     0     0     0     0     0     0     0     0     0
          0     0     0     0     0     0     0     0     0     0     0     0     0     0     0     0     0     0     0     0
          0     0     0     0     0     0     0     0     0     0     0     0     0     0     0     0     0     0     0     0
          0     0     0     0     0     0     0     0     0     0     0     0     0     0     0     0
   7      0     0     0     0     0     0     0     0     0     0     0     0     0     0     0     0     0     0     0     0
          0     0     0     0     0     0     0     0     0     0     0     0     0     0     0     0     0     0     0     0
          0     0     0     0     0     0     0     0     0     0     0     0     0     0     0     0     0     0     0     0
          0     0     0     0     0     0     0     0     0     0     0     0     0     0     0     0
   8      0     0     0     0     0     0     0     0     0     0     0     0     0     0     0     0     0     0     0     0
          0     0     0     0     0     0     0     0     0     0     0     0     0     0     0     0     0     0     0     0
          0     0     0     0     0     0     0     0     0     0     0     0     0     0     0     0     0     0     0     0
          0     0     0     0     0     0     0     0     0     0     0     0     0     0     0     0
   9      0     0     0     0     0     0     0     0     0     0     0     0     0     0     0     0     0     0     0     0
          0     0     0     0     0     0     0     0     0     0     0     0     0     0     0     0     0     0     0     0
          0     0     0     0     0     0     0     0     0     0     0     0     0     0     0     0     0     0     0     0
          0     0     0     0     0     0     0     0     0     0     0     0     0     0     0     0
  10      0     0     0     0     0     0     0     0     0     0     0     0     0     0     0     0     0     0     0     0
          0     0     0     0     0     0     0     0     0     0     0     0     0     0     0     0     0     0     0     0
          0     0     0     0     0     0     0     0     0     0     0     0     0     0     0     0     0     0     0     0
          0     0     0     0     0     0     0     0     0     0     0     0     0     0     0     0
  11      0     0     0     0     0     0     0     0     0     0     0     0     0     0     0     0     0     0     0     0
          0     0     0     0     0     0     0     0     0     0     0     0     0     0     0     0     0     0     0     0
          0     0     0     0     0     0     0     0     0     0     0     0     0     0     0     0     0     0     0     0
          0     0     0     0     0     0     0     0     0     0     0     0     0     0     0     0
  12      0     0     0     0     0     0     0     0     0     0     0     0     0     0     0     0     0     0     0     0
          0     0     0     0     0     0     0     0     0     0     0     0     0     0     0     0     0     0     0     0
          0     0     0     0     0     0     0     0     0     0     0     0     0     0     0     0     0     0     0     0
          0     0     0     0     0     0     0     0     0     0     0     0     0     0     0     0
  13      0     0     0     0     0     0     0     0     0     0     0     0     0     0     0     0     0     0     0     0
          0     0     0     0     0     0     0     0     0     0     0     0     0     0     0     0     0     0     0     0
          0     0     0     0     0     0     0     0     0     0     0     0     0     0     0     0     0     0     0     0
          0     0     0     0     0     0     0     0     0     0     0     0     0     0     0     0
  14      0     0     0     0     0     0     0     0     0     0     0     0     0     0     0     0     0     0     0     0
          0     0     0     0     0     0     0     0     0     0     0     0     0     0     0     0     0     0     0     0
          0     0     0     0     0     0     0     0     0     0     0     0     0     0     0     0     0     0     0     0
          0     0     0     0     0     0     0     0     0     0     0     0     0     0     0     0
  15      0     0     0     0     0     0     0     0     0     0     0     0     0     0     0     0     0     0     0     0
          0     0     0     0     0     0     0     0     0     0     0     0     0     0     0     0     0     0     0     0
          0     0     0     0     0     0     0     0     0     0     0     0     0     0     0     0     0     0     0     0
          0     0     0     0     0     0     0     0     0     0     0     0     0     0     0     0
  16      0     0     0     0     0     0     0     0     0     0     0     0     0     0     0     0     0     0     0     0
          0     0     0     0     0     0     0     0     0     0     0     0     0     0     0     0     0     0     0     0
          0     0     0     0     0     0     0     0     0     0     0     0     0     0     0     0     0     0     0     0
          0     0     0     0     0     0     0     0     0     0     0     0     0     0     0     0
  17      0     0     0     0     0     0     0     0     0     0     0     0     0     0     0     0     0     0     0     0
          0     0     0     0     0     0     0     0     0     0     0     0     0     0     0     0     0     0     0     0
          0     0     0     0     0     0     0     0     0     0     0     0     0     0     0     0     0     0     0     0
          0     0     0     0     0     0     0     0     0     0     0     0     0     0     0     0
  18      0     0     0     0     0     0     0     0     0     0     0     0     0     0     0     0     0     0     0     0
          0     0     0     0     0     0     0     0     0     0     0     0     0     0     0     0     0     0     0     0
          0     0     0     0     0     0     0     0     0     0     0     0     0     0     0     0     0     0     0     0
          0     0     0     0     0     0     0     0     0     0     0     0     0     0     0     0
  19      0     0     0     0     0     0     0     0     0     0     0     0     0     0     0     0     0     0     0     0
          0     0     0     0     0     0     0     0     0     0     0     0     0     0     0     0     0     0     0     0
          0     0     0     0     0     0     0     0     0     0     0     0     0     0     0     0     0     0     0     0
          0     0     0     0     0     0     0     0     0     0     0     0     0     0     0     0
  20      0     0     0     0     0     0     0     0     0     0     0     0     0     0     0     0     0     0     0     0
          0     0     0     0     0     0     0     0     0     0     0     0     0     0     0     0     0     0     0     0
          0     0     0     0     0     0     0     0     0     0     0     0     0     0     0     0     0     0     0     0
          0     0     0     0     0     0     0     0     0     0     0     0     0     0     0     0
  21      0     0     0     0     0     0     0     0     0     0     0     0     0     0     0     0     0     0     0     0
          0     0     0     0     0     0     0     0     0     0     0     0     0     0     0     0     0     0     0     0
          0     0     0     0     0     0     0     0     0     0     0     0     0     0     0     0     0     0     0     0
          0     0     0     0     0     0     0     0     0     0     0     0     0     0     0     0
  22      0     0     0     0     0     0     0     0     0     0     0     0     0     0     0     0     0     0     0     0
          0     0     0     0     0     0     0     0     0     0     0     0     0     0     0     0     0     0     0     0
          0     0     0     0     0     0     0     0     0     0     0     0     0     0     0     0     0     0     0     0
          0     0     0     0     0     0     0     0     0     0     0     0     0     0     0     0
  23      0     0     0     0     0     0     0     0     0     0     0     0     0     0     0     0     0     0     0     0
          0     0     0     0     0     0     0     0     0     0     0     0     0     0     0     0     0     0     0     0
          0     0     0     0     0     0     0     0     0     0     0     0     0     0     0     0     0     0     0     0
          0     0     0     0     0     0     0     0     0     0     0     0     0     0     0     0
  24      0     0     0     0     0     0     0     0     0     0     0     0     0     0     0     0     0     0     0     0
          0     0     0     0     0     0     0     0     0     0     0     0     0     0     0     0     0     0     0     0
          0     0     0     0     0     0     0     0     0     0     0     0     0     0     0     0     0     0     0     0
          0     0     0     0     0     0     0     0     0     0     0     0     0     0     0     0
  25      0     0     0     0     0     0     0     0     0     0     0     0     0     0     0     0     0     0     0     0
          0     0     0     0     0     0     0     0     0     0     0     0     0     0     0     0     0     0     0     0
          0     0     0     0     0     0     0     0     0     0     0     0     0     0     0     0     0     0     0     0
          0     0     0     0     0     0     0     0     0     0     0     0     0     0     0     0
  26      0     0     0     0     0     0     0     0     0     0     0     0     0     0     0     0     0     0     0     0
          0     0     0     0     0     0     0     0     0     0     0     0     0     0     0     0     0     0     0     0
          0     0     0     0     0     0     0     0     0     0     0     0     0     0     0     0     0     0     0     0
          0     0     0     0     0     0     0     0     0     0     0     0     0     0     0     0
  27      0     0     0     0     0     0     0     0     0     0     0     0     0     0     0     0     0     0     0     0
          0     0     0     0     0     0     0     0     0     0     0     0     0     0     0     0     0     0     0     0
          0     0     0     0     0     0     0     0     0     0     0     0     0     0     0     0     0     0     0     0
          0     0     0     0     0     0     0     0     0     0     0     0     0     0     0     0
  28      0     0     0     0     0     0     0     0     0     0     0     0     0     0     0     0     0     0     0     0
          0     0     0     0     0     0     0     0     0     0     0     0     0     0     0     0     0     0     0     0
          0     0     0     0     0     0     0     0     0     0     0     0     0     0     0     0     0     0     0     0
          0     0     0     0     0     0     0     0     0     0     0     0     0     0     0     0
  29      0     0     0     0     0     0     0     0     0     0     0     0     0     0     0     0     0     0     0     0
          0     0     0     0     0     0     0     0     0     0     0     0     0     0     0     0     0     0     0     0
          0     0     0     0     0     0     0     0     0     0     0     0     0     0     0     0     0     0     0     0
          0     0     0     0     0     0     0     0     0     0     0     0     0     0     0     0
  30      0     0     0     0     0     0     0     0     0     0     0     0     0     0     0     0     0     0     0     0
          0     0     0     0     0     0     0     0     0     0     0     0     0     0     0     0     0     0     0     0
          0     0     0     0     0     0     0     0     0     0     0     0     0     0     0     0     0     0     0     0
          0     0     0     0     0     0     0     0     0     0     0     0     0     0     0     0
  31      0     0     0     0     0     0     0     0     0     0     0     0     0     0     0     0     0     0     0     0
          0     0     0     0     0     0     0     0     0     0     0     0     0     0     0     0     0     0     0     0
          0     0     0     0     0     0     0     0     0     0     0     0     0     0     0     0     0     0     0     0
          0     0     0     0     0     0     0     0     0     0     0     0     0     0     0     0
  32      0     0     0     0     0     0     0     0     0     0     0     0     0     0     0     0     0     0     0     0
          0     0     0     0     0     0     0     0     0     0     0     0     0     0     0     0     0     0     0     0
          0     0     0     0     0     0     0     0     0     0     0     0     0     0     0     0     0     0     0     0
          0     0     0     0     0     0     0     0     0     0     0     0     0     0     0     0
  33      0     0     0     0     0     0     0     0     0     0     0     0     0     0     0     0     0     0     0     0
          0     0     0     0     0     0     0     0     0     0     0     0     0     0     0     0     0     0     0     0
          0     0     0     0     0     0     0     0     0     0     0     0     0     0     0     0     0     0     0     0
          0     0     0     0     0     0     0     0     0     0     0     0     0     0     0     0
  34      0     0     0     0     0     0     0     0     0     0     0     0     0     0     0     0     0     0     0     0
          0     0     0     0     0     0     0     0     0     0     0     0     0     0     0     0     0     0     0     0
          0     0     0     0     0     0     0     0     0     0     0     0     0     0     0     0     0     0     0     0
          0     0     0     0     0     0     0     0     0     0     0     0     0     0     0     0
  35      0     0     0     0     0     0     0     0     0     0     0     0     0     0     0     0     0     0     0     0
          0     0     0     0     0     0     0     0     0     0     0     0     0     0     0     0     0     0     0     0
          0     0     0     0     0     0     0     0     0     0     0     0     0     0     0     0     0     0     0     0
          0     0     0     0     0     0     0     0     0     0     0     0     0     0     0     0
  36      0     0     0     0     0     0     0     0     0     0     0     0     0     0     0     0     0     0     0     0
          0     0     0     0     0     0     0     0     0     0     0     0     0     0     0     0     0     0     0     0
          0     0     0     0     0     0     0     0     0     0     0     0     0     0     0     0     0     0     0     0
          0     0     0     0     0     0     0     0     0     0     0     0     0     0     0     0
  37      0     0     0     0     0     0     0     0     0     0     0     0     0     0     0     0     0     0     0     0
          0     0     0     0     0     0     0     0     0     0     0     0     0     0     0     0     0     0     0     0
          0     0     0     0     0     0     0     0     0     0     0     0     0     0     0     0     0     0     0     0
          0     0     0     0     0     0     0     0     0     0     0     0     0     0     0     0
  38      0     0     0     0     0     0     0     0     0     0     0     0     0     0     0     0     0     0     0     0
          0     0     0     0     0     0     0     0     0     0     0     0     0     0     0     0     0     0     0     0
          0     0     0     0     0     0     0     0     0     0     0     0     0     0     0     0     0     0     0     0
          0     0     0     0     0     0     0     0     0     0     0     0     0     0     0     0
  39      0     0     0     0     0     0     0     0     0     0     0     0     0     0     0     0     0     0     0     0
          0     0     0     0     0     0     0     0     0     0     0     0     0     0     0     0     0     0     0     0
          0     0     0     0     0     0     0     0     0     0     0     0     0     0     0     0     0     0     0     0
          0     0     0     0     0     0     0     0     0     0     0     0     0     0     0     0
  40      0     0     0     0     0     0     0     0     0     0     0     0     0     0     0     0     0     0     0     0
          0     0     0     0     0     0     0     0     0     0     0     0     0     0     0     0     0     0     0     0
          0     0     0     0     0     0     0     0     0     0     0     0     0     0     0     0     0     0     0     0
          0     0     0     0     0     0     0     0     0     0     0     0     0     0     0     0
  41      0     0     0     0     0     0     0     0     0     0     0     0     0     0     0     0     0     0     0     0
          0     0     0     0     0     0     0     0     0     0     0     0     0     0     0     0     0     0     0     0
          0     0     0     0     0     0     0     0     0     0     0     0     0     0     0     0     0     0     0     0
          0     0     0     0     0     0     0     0     0     0     0     0     0     0     0     0
  42      0     0     0     0     0     0     0     0     0     0     0     0     0     0     0     0     0     0     0     0
          0     0     0     0     0     0     0     0     0     0     0     0     0     0     0     0     0     0     0     0
          0     0     0     0     0     0     0     0     0     0     0     0     0     0     0     0     0     0     0     0
          0     0     0     0     0     0     0     0     0     0     0     0     0     0     0     0
  43      0     0     0     0     0     0     0     0     0     0     0     0     0     0     0     0     0     0     0     0
          0     0     0     0     0     0     0     0     0     0     0     0     0     0     0     0     0     0     0     0
          0     0     0     0     0     0     0     0     0     0     0     0     0     0     0     0     0     0     0     0
          0     0     0     0     0     0     0     0     0     0     0     0     0     0     0     0
  44      0     0     0     0     0     0     0     0     0     0     0     0     0     0     0     0     0     0     0     0
          0     0     0     0     0     0     0     0     0     0     0     0     0     0     0     0     0     0     0     0
          0     0     0     0     0     0     0     0     0     0     0     0     0     0     0     0     0     0     0     0
          0     0     0     0     0     0     0     0     0     0     0     0     0     0     0     0
  45      0     0     0     0     0     0     0     0     0     0     0     0     0     0     0     0     0     0     0     0
          0     0     0     0     0     0     0     0     0     0     0     0     0     0     0     0     0     0     0     0
          0     0     0     0     0     0     0     0     0     0     0     0     0     0     0     0     0     0     0     0
          0     0     0     0     0     0     0     0     0     0     0     0     0     0     0     0
  46      0     0     0     0     0     0     0     0     0     0     0     0     0     0     0     0     0     0     0     0
          0     0     0     0     0     0     0     0     0     0     0     0     0     0     0     0     0     0     0     0
          0     0     0     0     0     0     0     0     0     0     0     0     0     0     0     0     0     0     0     0
          0     0     0     0     0     0     0     0     0     0     0     0     0     0     0     0
  47      0     0     0     0     0     0     0     0     0     0     0     0     0     0     0     0     0     0     0     0
          0     0     0     0     0     0     0     0     0     0     0     0     0     0     0     0     0     0     0     0
          0     0     0     0     0     0     0     0     0     0     0     0     0     0     0     0     0     0     0     0
          0     0     0     0     0     0     0     0     0     0     0     0     0     0     0     0
  48      0     0     0     0     0     0     0     0     0     0     0     0     0     0     0     0     0     0     0     0
          0     0     0     0     0     0     0     0     0     0     0     0     0     0     0     0     0     0     0     0
          0     0     0     0     0     0     0     0     0     0     0     0     0     0     0     0     0     0     0     0
          0     0     0     0     0     0     0     0     0     0     0     0     0     0     0     0
  49      0     0     0     0     0     0     0     0     0     0     0     0     0     0     0     0     0     0     0     0
          0     0     0     0     0     0     0     0     0     0     0     0     0     0     0     0     0     0     0     0
          0     0     0     0     0     0     0     0     0     0     0     0     0     0     0     0     0     0     0     0
          0     0     0     0     0     0     0     0     0     0     0     0     0     0     0     0
  50      0     0     0     0     0     0     0     0     0     0     0     0     0     0     0     0     0     0     0     0
          0     0     0     0     0     0     0     0     0     0     0     0     0     0     0     0     0     0     0     0
          0     0     0     0     0     0     0     0     0     0     0     0     0     0     0     0     0     0     0     0
          0     0     0     0     0     0     0     0     0     0     0     0     0     0     0     0
  51      0     0     0     0     0     0     0     0     0     0     0     0     0     0     0     0     0     0     0     0
          0     0     0     0     0     0     0     0     0     0     0     0     0     0     0     0     0     0     0     0
          0     0     0     0     0     0     0     0     0     0     0     0     0     0     0     0     0     0     0     0
          0     0     0     0     0     0     0     0     0     0     0     0     0     0     0     0
  52      0     0     0     0     0     0     0     0     0     0     0     0     0     0     0     0     0     0     0     0
          0     0     0     0     0     0     0     0     0     0     0     0     0     0     0     0     0     0     0     0
          0     0     0     0     0     0     0     0     0     0     0     0     0     0     0     0     0     0     0     0
          0     0     0     0     0     0     0     0     0     0     0     0     0     0     0     0
  53      0     0     0     0     0     0     0     0     0     0     0     0     0     0     0     0     0     0     0     0
          0     0     0     0     0     0     0     0     0     0     0     0     0     0     0     0     0     0     0     0
          0     0     0     0     0     0     0     0     0     0     0     0     0     0     0     0     0     0     0     0
          0     0     0     0     0     0     0     0     0     0     0     0     0     0     0     0
  54      0     0     0     0     0     0     0     0     0     0     0     0     0     0     0     0     0     0     0     0
          0     0     0     0     0     0     0     0     0     0     0     0     0     0     0     0     0     0     0     0
          0     0     0     0     0     0     0     0     0     0     0     0     0     0     0     0     0     0     0     0
          0     0     0     0     0     0     0     0     0     0     0     0     0     0     0     0
  55      0     0     0     0     0     0     0     0     0     0     0     0     0     0     0     0     0     0     0     0
          0     0     0     0     0     0     0     0     0     0     0     0     0     0     0     0     0     0     0     0
          0     0     0     0     0     0     0     0     0     0     0     0     0     0     0     0     0     0     0     0
          0     0     0     0     0     0     0     0     0     0     0     0     0     0     0     0
  56      0     0     0     0     0     0     0     0     0     0     0     0     0     0     0     0     0     0     0     0
          0     0     0     0     0     0     0     0     0     0     0     0     0     0     0     0     0     0     0     0
          0     0     0     0     0     0     0     0     0     0     0     0     0     0     0     0     0     0     0     0
          0     0     0     0     0     0     0     0     0     0     0     0     0     0     0     0
  57      0     0     0     0     0     0     0     0     0     0     0     0     0     0     0     0     0     0     0     0
          0     0     0     0     0     0     0     0     0     0     0     0     0     0     0     0     0     0     0     0
          0     0     0     0     0     0     0     0     0     0     0     0     0     0     0     0     0     0     0     0
          0     0     0     0     0     0     0     0     0     0     0     0     0     0     0     0
  58      0     0     0     0     0     0     0     0     0     0     0     0     0     0     0     0     0     0     0     0
          0     0     0     0     0     0     0     0     0     0     0     0     0     0     0     0     0     0     0     0
          0     0     0     0     0     0     0     0     0     0     0     0     0     0     0     0     0     0     0     0
          0     0     0     0     0     0     0     0     0     0     0     0     0     0     0     0
  59      0     0     0     0     0     0     0     0     0     0     0     0     0     0     0     0     0     0     0     0
          0     0     0     0     0     0     0     0     0     0     0     0     0     0     0     0     0     0     0     0
          0     0     0     0     0     0     0     0     0     0     0     0     0     0     0     0     0     0     0     0
          0     0     0     0     0     0     0     0     0     0     0     0     0     0     0     0
  60      0     0     0     0     0     0     0     0     0     0     0     0     0     0     0     0     0     0     0     0
          0     0     0     0     0     0     0     0     0     0     0     0     0     0     0     0     0     0     0     0
          0     0     0     0     0     0     0     0     0     0     0     0     0     0     0     0     0     0     0     0
          0     0     0     0     0     0     0     0     0     0     0     0     0     0     0     0
  61      0     0     0     0     0     0     0     0     0     0     0     0     0     0     0     0     0     0     0     0
          0     0     0     0     0     0     0     0     0     0     0     0     0     0     0     0     0     0     0     0
          0     0     0     0     0     0     0     0     0     0     0     0     0     0     0     0     0     0     0     0
          0     0     0     0     0     0     0     0     0     0     0     0     0     0     0     0
  62      0     0     0     0     0     0     0     0     0     0     0     0     0     0     0     0     0     0     0     0
          0     0     0     0     0     0     0     0     0     0     0     0     0     0     0     0     0     0     0     0
          0     0     0     0     0     0     0     0     0     0     0     0     0     0     0     0     0     0     0     0
          0     0     0     0     0     0     0     0     0     0     0     0     0     0     0     0
  63      0     0     0     0     0     0     0     0     0     0     0     0     0     0     0     0     0     0     0     0
          0     0     0     0     0     0     0     0     0     0     0     0     0     0     0     0     0     0     0     0
          0     0     0     0     0     0     0     0     0     0     0     0     0     0     0     0     0     0     0     0
          0     0     0     0     0     0     0     0     0     0     0     0     0     0     0     0
  64      0     0     0     0     0     0     0     0     0     0     0     0     0     0     0     0     0     0     0     0
          0     0     0     0     0     0     0     0     0     0     0     0     0     0     0     0     0     0     0     0
          0     0     0     0     0     0     0     0     0     0     0     0     0     0     0     0     0     0     0     0
          0     0     0     0     0     0     0     0     0     0     0     0     0     0     0     0
  65      0     0     0     0     0     0     0     0     0     0     0     0     0     0     0     0     0     0     0     0
          0     0     0     0     0     0     0     0     0     0     0     0     0     0     0     0     0     0     0     0
          0     0     0     0     0     0     0     0     0     0     0     0     0     0     0     0     0     0     0     0
          0     0     0     0     0     0     0     0     0     0     0     0     0     0     0     0
  66      0     0     0     0     0     0     0     0     0     0     0     0     0     0     0     0     0     0     0     0
          0     0     0     0     0     0     0     0     0     0     0     0     0     0     0     0     0     0     0     0
          0     0     0     0     0     0     0     0     0     0     0     0     0     0     0     0     0     0     0     0
          0     0     0     0     0     0     0     0     0     0     0     0     0     0     0     0
  67      0     0     0     0     0     0     0     0     0     0     0     0     0     0     0     0     0     0     0     0
          0     0     0     0     0     0     0     0     0     0     0     0     0     0     0     0     0     0     0     0
          0     0     0     0     0     0     0     0     0     0     0     0     0     0     0     0     0     0     0     0
          0     0     0     0     0     0     0     0     0     0     0     0     0     0     0     0
  68      0     0     0     0     0     0     0     0     0     0     0     0     0     0     0     0     0     0     0     0
          0     0     0     0     0     0     0     0     0     0     0     0     0     0     0     0     0     0     0     0
          0     0     0     0     0     0     0     0     0     0     0     0     0     0     0     0     0     0     0     0
          0     0     0     0     0     0     0     0     0     0     0     0     0     0     0     0
  69      0     0     0     0     0     0     0     0     0     0     0     0     0     0     0     0     0     0     0     0
          0     0     0     0     0     0     0     0     0     0     0     0     0     0     0     0     0     0     0     0
          0     0     0     0     0     0     0     0     0     0     0     0     0     0     0     0     0     0     0     0
          0     0     0     0     0     0     0     0     0     0     0     0     0     0     0     0
  70      0     0     0     0     0     0     0     0     0     0     0     0     0     0     0     0     0     0     0     0
          0     0     0     0     0     0     0     0     0     0     0     0     0     0     0     0     0     0     0     0
          0     0     0     0     0     0     0     0     0     0     0     0     0     0     0     0     0     0     0     0
          0     0     0     0     0     0     0     0     0     0     0     0     0     0     0     0
  71      0     0     0     0     0     0     0     0     0     0     0     0     0     0     0     0     0     0     0     0
          0     0     0     0     0     0     0     0     0     0     0     0     0     0     0     0     0     0     0     0
          0     0     0     0     0     0     0     0     0     0     0     0     0     0     0     0     0     0     0     0
          0     0     0     0     0     0     0     0     0     0     0     0     0     0     0     0
  72      1     1     1     1     1     1     1     1     1     1     1     1     1     1     1     1     1     1     0     1
          1     1     1     1     1     1     1     1     1     1     1     1     1     1     1     1     1     1     1     1
          1     1     1     1     1     1     1     1     1     1     1     1     1     1     1     1     1     1     1     1
          1     1     1     1     1     1     1     1     1     1     1     1     1     1     1     1
  73      1     1     1     1     1     1     1     1     1     1     1     1     1     1     1     1     1     1     0     1
          1     1     1     1     1     1     1     1     1     1     1     1     1     1     1     1     1     1     1     1
          1     1     1     1     1     1     1     1     1     1     1     1     1     1     1     1     1     1     1     1
          1     1     1     1     1     1     1     1     1     1     1     1     1     1     1     1
  74      1     1     1     1     1     1     1     1     1     1     1     1     1     1     1     1     1     0     0     1
          1     1     1     1     1     1     1     1     1     1     1     1     1     1     1     1     1     1     1     1
          1     1     1     1     1     1     1     1     1     1     1     1     1     1     1     1     1     1     1     1
          1     1     1     1     1     1     1     1     1     1     1     1     1     1     1     1
  75      1     1     1     1     1     1     1     1     1     1     1     1     1     1     1     1     1     0     1     1
          1     1     1     1     1     1     1     1     1     1     1     1     1     1     1     1     1     1     1     1
          1     1     1     1     1     1     1     1     1     1     1     1     1     1     1     1     1     1     1     1
          1     1     1     1     1     1     1     1     1     1     1     1     1     1     1     1
  76      1     1     1     1     1     1     1     1     1     1     1     1     1     1     1     1     1     0     1     1
          1     1     1     1     1     1     1     1     1     1     1     1     1     1     1     1     1     1     1     1
          1     1     1     1     1     1     1     1     1     1     1     1     1     1     1     1     1     1     1     1
          1     1     1     1     1     1     1     1     1     1     1     1     1     1     1     1
  77      1     1     1     1     1     1     1     1     1     1     1     1     1     1     1     1     0     0     1     1
          1     1     1     1     1     1     1     1     1     1     1     1     1     1     1     1     1     1     1     1
          1     1     1     1     1     1     1     1     1     1     1     1     1     1     1     1     1     1     1     1
          1     1     1     1     1     1     1     1     1     1     1     1     1     1     1     1
  78      1     1     1     1     1     1     1     1     1     1     1     1     1     1     1     1     0     0     1     1
          1     1     1     1     1     1     1     1     1     1     1     1     1     1     1     1     1     1     1     1
          1     1     1     1     1     1     1     1     1     1     1     1     1     1     1     1     1     1     1     1
          1     1     1     1     1     1     1     1     1     1     1     1     1     1     1     1
  79      1     1     1     1     1     1     1     1     1     1     1     1     1     1     1     1     0     0     1     1
          1     1     1     1     1     1     1     1     1     1     1     1     1     1     1     1     1     1     1     1
          1     1     1     1     1     1     1     1     1     1     1     1     1     1     1     1     1     1     1     1
          1     1     1     1     1     1     1     1     1     1     1     1     1     1     1     1
  80      1     1     1     1     1     1     1     1     1     1     1     1     1     1     1     1     0     1     1     1
          1     1     1     1     1     1     1     1     1     1     1     1     1     1     1     1     1     1     1     1
          1     1     1     1     1     1     1     1     1     1     1     1     1     1     1     1     1     1     1     1
          1     1     1     1     1     1     1     1     1     1     1     1     1     1     1     1
  81      1     1     1     1     1     1     1     1     1     1     1     1     1     1     1     0     0     1     1     1
          1     1     1     1     1     1     1     1     1     1     1     1     1     1     1     1     1     1     1     1
          1     1     1     1     1     1     1     1     1     1     1     1     1     1     1     1     1     1     1     1
          1     1     1     1     1     1     1     1     1     1     1     1     1     1     1     1
  82      1     1     1     1     1     1     1     1     1     1     1     1     1     1     1     0     0     1     1     1
          1     1     1     1     1     1     1     1     1     1     1     1     1     1     1     1     1     1     1     1
          1     1     1     1     1     1     1     1     1     1     1     1     1     1     1     1     1     1     1     1
          1     1     1     1     1     1     1     1     1     1     1     1     1     1     1     1
  83      1     1     1     1     1     1     1     1     1     1     1     1     1     1     1     0     1     1     1     1
          1     1     1     1     1     1     1     1     1     1     1     1     1     1     1     1     1     1     1     1
          1     1     1     1     1     1     1     1     1     1     1     1     1     1     1     1     1     1     1     1
          1     1     1     1     1     1     1     1     1     1     1     1     1     1     1     1
  84      1     1     1     1     1     1     1     1     1     1     1     1     1     1     0     0     1     1     1     1
          1     1     1     1     1     1     1     1     1     1     1     1     1     1     1     1     1     1     1     1
          1     1     1     1     1     1     1     1     1     1     1     1     1     1     1     1     1     1     1     1
          1     1     1     1     1     1     1     1     1     1     1     1     1     1     1     1
  85      1     1     1     1     1     1     1     1     1     1     1     1     1     1     0     0     1     1     1     1
          1     1     1     1     1     1     1     1     1     1     1     1     1     1     1     1     1     1     1     1
          1     1     1     1     1     1     1     1     1     1     1     1     1     1     1     1     1     1     1     1
          1     1     1     1     1     1     1     1     1     1     1     1     1     1     1     1
  86      1     1     1     1     1     1     1     1     1     1     1     1     1     1     0     1     1     1     1     1
          1     1     1     1     1     1     1     1     1     1     1     1     1     1     1     1     1     1     1     1
          1     1     1     1     1     1     1     1     1     1     1     1     1     1     1     1     1     1     1     1
          1     1     1     1     1     1     1     1     1     1     1     1     1     1     1     1
  87      1     1     1     1     1     1     1     1     1     1     1     1     1     0     0     1     1     1     1     1
          1     1     1     1     1     1     1     1     1     1     1     1     1     1     1     1     1     1     1     1
          1     1     1     1     1     1     1     1     1     1     1     1     1     1     1     1     1     1     1     1
          1     1     1     1     1     1     1     1     1     1     1     1     1     1     1     1
  88      1     1     1     1     1     1     1     1     1     1     1     1     1     0     0     1     1     1     1     1
          1     1     1     1     1     1     1     1     1     1     1     1     1     1     1     1     1     1     1     1
          1     1     1     1     1     1     1     1     1     1     1     1     1     1     1     1     1     1     1     1
          1     1     1     1     1     1     1     1     1     1     1     1     1     1     1     1
  89      1     1     1     1     1     1     1     1     1     1     1     1     1     0     1     1     1     1     1     1
          1     1     1     1     1     1     1     1     1     1     1     1     1     1     1     1     1     1     1     1
          1     1     1     1     1     1     1     1     1     1     1     1     1     1     1     1     1     1     1     1
          1     1     1     1     1     1     1     1     1     1     1     1     1     1     1     1
  90      1     1     1     1     1     1     1     1     1     1     1     1     0     0     1     1     1     1     1     1
          1     1     1     1     1     1     1     1     1     1     1     1     1     1     1     1     1     1     1     1
          1     1     1     1     1     1     1     1     1     1     1     1     1     1     1     1     1     1     1     1
          1     1     1     1     1     1     1     1     1     1     1     1     1     1     1     1
  91      1     1     1     1     1     1     1     1     1     1     1     1     0     0     1     1     1     1     1     1
          1     1     1     1     1     1     1     1     1     1     1     1     1     1     1     1     1     1     1     1
          1     1     1     1     1     1     1     1     1     1     1     1     1     1     1     1     1     1     1     1
          1     1     1     1     1     1     1     1     1     1     1     1     1     1     1     1
  92      1     1     1     1     1     1     1     1     1     1     1     1     0     1     1     1     1     1     1     1
          1     1     1     1     1     1     1     1     1     1     1     1     1     1     1     1     1     1     1     1
          1     1     1     1     1     1     1     1     1     1     1     1     1     1     1     1     1     1     1     1
          1     1     1     1     1     1     1     1     1     1     1     1     1     1     1     1
  93      1     1     1     1     1     1     1     1     1     1     1     1     0     1     1     1     1     1     1     1
          1     1     1     1     1     1     1     1     1     1     1     1     1     1     1     1     1     1     1     1
          1     1     1     1     1     1     1     1     1     1     1     1     1     1     1     1     1     1     1     1
          1     1     1     1     1     1     1     1     1     1     1     1     1     1     1     1
  94      1     1     1     1     1     1     1     1     1     1     1     0     0     1     1     1     1     1     1     1
          1     1     1     1     1     1     1     1     1     1     1     1     1     1     1     1     1     1     1     1
          1     1     1     1     1     1     1     1     1     1     1     1     1     1     1     1     1     1     1     1
          1     1     1     1     1     1     1     1     1     1     1     1     1     1     1     1
  95      1     1     1     1     1     1     1     1     1     1     1     0     1     1     1     1     1     1     1     1
          1     1     1     1     1     1     1     1     1     1     1     1     1     1     1     1     1     1     1     1
          1     1     1     1     1     1     1     1     1     1     1     1     1     1     1     1     1     1     1     1
          1     1     1     1     1     1     1     1     1     1     1     1     1     1     1     1
  96      1     1     1     1     1     1     1     1     1     1     1     0     1     1     1     1     1     1     1     1
          1     1     1     1     1     1     1     1     1     1     1     1     1     1     1     1     1     1     1     1
          1     1     1     1     1     1     1     1     1     1     1     1     1     1     1     1     1     1     1     1
          1     1     1     1     1     1     1     1     1     1     1     1     1     1     1     1
  97      1     1     1     1     1     1     1     1     1     1     0     0     1     1     1     1     1     1     1     1
          1     1     1     1     1     1     1     1     1     1     1     1     1     1     1     1     1     1     1     1
          1     1     1     1     1     1     1     1     1     1     1     1     1     1     1     1     1     1     1     1
          1     1     1     1     1     1     1     1     1     1     1     1     1     1     1     1
  98      1     1     1     1     1     1     1     1     1     1     0     1     1     1     1     1     1     1     1     1
          1     1     1     1     1     1     1     1     1     1     1     1     1     1     1     1     1     1     1     1
          1     1     1     1     1     1     1     1     1     1     1     1     1     1     1     1     1     1     1     1
          1     1     1     1     1     1     1     1     1     1     1     1     1     1     1     1
  99      1     1     1     1     1     1     1     1     1     1     0     1     1     1     1     1     1     1     1     1
          1     1     1     1     1     1     1     1     1     1     1     1     1     1     1     1     1     1     1     1
          1     1     1     1     1     1     1     1     1     1     1     1     1     1     1     1     1     1     1     1
          1     1     1     1     1     1     1     1     1     1     1     1     1     1     1     1
 100      1     1     1     1     1     1     1     1     1     0     0     1     1     1     1     1     1     1     1     1
          1     1     1     1     1     1     1     1     1     1     1     1     1     1     1     1     1     1     1     1
          1     1     1     1     1     1     1     1     1     1     1     1     1     1     1     1     1     1     1     1
          1     1     1     1     1     1     1     1     1     1     1     1     1     1     1     1
 101      1     1     1     1     1     1     1     1     1     0     1     1     1     1     1     1     1     1     1     1
          1     1     1     1     1     1     1     1     1     1     1     1     1     1     1     1     1     1     1     1
          1     1     1     1     1     1     1     1     1     1     1     1     1     1     1     1     1     1     1     1
          1     1     1     1     1     1     1     1     1     1     1     1     1     1     1     1
 102      1     1     1     1     1     1     1     1     1     0     1     1     1     1     1     1     1     1     1     1
          1     1     1     1     1     1     1     1     1     1     1     1     1     1     1     1     1     1     1     1
          1     1     1     1     1     1     1     1     1     1     1     1     1     1     1     1     1     1     1     1
          1     1     1     1     1     1     1     1     1     1     1     1     1     1     1     1
 103      1     1     1     1     1     1     1     1     0     0     1     1     1     1     1     1     1     1     1     1
          1     1     1     1     1     1     1     1     1     1     1     1     1     1     1     1     1     1     1     1
          1     1     1     1     1     1     1     1     1     1     1     1     1     1     1     1     1     1     1     1
          1     1     1     1     1     1     1     1     1     1     1     1     1     1     1     1
 104      1     1     1     1     1     1     1     1     0     0     1     1     1     1     1     1     1     1     1     1
          1     1     1     1     1     1     1     1     1     1     1     1     1     1     1     1     1     1     1     1
          1     1     1     1     1     0     0     0     0     0     0     1     1     1     1     1     1     1     1     1
          1     1     1     1     1     1     1     1     1     1     1     1     1     1     1     1
 105      1     1     1     1     1     1     1     1     0     1     1     1     1     1     1     1     1     1     1     1
          1     1     1     1     1     1     1     1     1     1     1     1     1     1     1     1     1     1     1     1
          1     1     0     0     0     0     0     0     0     0     0     0     0     0     0     0     0     0     1     1
          1     1     1     1     1     1     1     1     1     1     1     1     1     1     1     1
 106      1     1     1     1     1     1     1     1     0     1     1     1     1     1     1     1     1     1     1     1
          1     1     1     1     1     1     1     1     1     1     1     1     1     1     1     1     1     1     1     1
          1     1     0     0     0     0     0     0     0     0     0     0     0     0     0     0     0     0     0     0
          0     0     0     1     1     1     1     1     1     1     1     1     1     1     1     1
 107      1     1     1     1     1     1     1     0     0     1     1     1     1     1     1     1     1     1     1     1
          1     1     1     1     1     1     1     1     1     1     1     1     1     1     1     1     1     1     1     1
          1     0     0     0     0     0     0     0     0     0     0     0     0     0     0     0     0     0     0     0
          0     0     0     0     0     0     0     0     1     1     1     1     1     1     1     1
 108      1     1     1     1     1     1     1     0     1     1     1     1     1     1     1     1     1     1     1     1
          1     1     1     1     1     1     1     1     1     1     1     1     1     1     1     1     1     1     1     1
          1     0     0     0     0     0     0     0     0     0     0     0     0     0     0     0     0     0     0     0
          0     0     0     0     0     0     0     0     0     0     0     0     1     1     1     1
 109      1     1     1     1     1     1     1     0     1     1     1     1     1     1     1     1     1     1     1     1
          1     1     1     1     1     1     1     1     1     1     1     1     1     1     1     1     1     1     1     1
          0     0     0     0     0     0     0     0     0     0     0     0     0     0     0     0     0     0     0     0
          0     0     0     0     0     0     0     0     0     0     0     0     0     0     0     1
 110      1     1     1     1     1     1     0     0     1     1     1     1     1     1     1     1     1     1     1     1
          1     1     1     1     1     1     1     1     1     1     1     1     1     1     1     1     1     1     1     1
          0     0     0     0     0     0     0     0     0     0     0     0     0     0     0     0     0     0     0     0
          0     0     0     0     0     0     0     0     0     0     0     0     0     0     0     0
 111      1     1     1     1     1     1     0     1     1     1     1     1     1     1     1     1     1     1     1     1
          1     1     1     1     1     1     1     1     1     1     1     1     1     1     1     1     1     1     1     0
          0     0     0     0     0     0     0     0     0     0     0     0     0     0     0     0     0     0     0     0
          0     0     0     0     0     0     0     0     0     0     0     0     0     0     0     0
 112      1     1     1     1     1     1     0     1     1     1     1     1     1     1     1     1     1     1     1     1
          1     1     1     1     1     1     1     1     1     1     1     1     1     1     1     1     1     1     1     0
          0     0     0     0     0     0     0     0     0     0     0     0     0     0     0     0     0     0     0     0
          0     0     0     0     0     0     0     0     0     0     0     0     0     0     0     0
 113      1     1     1     1     1     0     0     1     1     1     1     1     1     1     1     1     1     1     1     1
          1     1     1     1     1     1     1     1     1     1     1     1     1     1     1     1     1     1     0     0
          0     0     0     0     0     0     0     0     0     0     0     0     0     0     0     0     0     0     0     0
          0     0     0     0     0     0     0     0     0     0     0     0     0     0     0     0
 114      1     1     1     1     1     0     1     1     1     1     1     1     1     1     1     1     1     1     1     1
          1     1     1     1     1     1     1     1     1     1     1     1     1     1     1     1     1     1     0     0
          0     0     0     0     0     0     0     0     0     0     0     0     0     0     0     0     0     0     0     0
          0     0     0     0     0     0     0     0     0     0     0     0     0     0     0     0
 115      1     1     1     1     1     0     1     1     1     1     1     1     1     1     1     1     1     1     1     1
          1     1     1     1     1     1     1     1     1     1     1     1     1     1     1     1     1     1     1     0
          0     0     0     0     0     0     0     0     0     0     0     0     0     0     0     0     0     0     0     0
          0     0     0     0     0     0     0     0     0     0     0     0     0     0     0     0
 116      1     1     1     1     0     0     1     1     1     1     1     1     1     1     1     1     1     1     1     1
          1     1     1     1     1     1     1     1     1     1     1     1     1     1     1     1     1     1     1     0
          0     0     0     0     0     0     0     0     0     0     0     0     0     0     0     0     0     0     0     0
          0     0     0     0     0     0     0     0     0     0     0     0     0     0     0     0
 117      1     1     1     1     0     1     1     1     1     1     1     1     1     1     1     1     1     1     1     1
          1     1     1     1     1     1     1     1     1     1     1     1     1     1     1     1     1     1     1     1
          0     0     0     0     0     0     0     0     0     0     0     0     0     0     0     0     0     0     0     0
          0     0     0     0     0     0     0     0     0     0     0     0     0     0     0     0
 118      1     1     1     1     0     1     1     1     1     1     1     1     1     1     1     1     1     1     1     1
          1     1     1     1     1     1     1     1     1     1     1     1     1     1     1     1     1     1     1     1
          0     0     0     0     0     0     0     0     0     0     0     0     0     0     0     0     0     0     0     0
          0     0     0     0     0     0     0     0     0     0     0     0     0     0     0     0
 119      1     1     1     1     0     1     1     1     1     1     1     1     1     1     1     1     1     1     1     1
          1     1     1     1     1     1     1     1     1     1     1     1     1     1     1     1     1     1     1     1
          1     0     0     0     0     0     0     0     0     0     0     0     0     0     0     0     0     0     0     0
          0     0     0     0     0     0     0     0     0     0     0     0     0     0     0     0
 120      1     1     1     0     1     1     1     1     1     1     1     1     1     1     1     1     1     1     1     1
          1     1     1     1     1     1     1     1     1     1     1     1     1     1     1     1     1     1     1     1
          1     0     0     0     0     0     0     0     0     0     0     0     0     0     0     0     0     0     0     0
          0     0     0     0     0     0     0     0     0     0     0     0     0     0     0     0
 121      1     1     1     0     1     1     1     1     1     1     1     1     1     1     1     1     1     1     1     1
          1     1     1     1     1     1     1     1     1     1     1     1     1     1     1     1     1     1     1     1
          1     1     0     0     0     0     0     0     0     0     0     0     0     0     0     0     0     0     0     0
          0     0     0     0     0     0     0     0     0     0     0     0     0     0     0     0
 122      1     1     1     0     1     1     1     1     1     1     1     1     1     1     1     1     1     1     1     1
          1     1     1     1     1     1     1     1     1     1     1     1     1     1     1     1     1     1     1     1
          1     1     1     0     0     0     0     0     0     0     0     0     0     0     0     0     0     0     0     0
          0     0     0     0     0     0     0     0     0     0     0     0     0     0     0     0
 123      1     1     0     1     1     1     1     1     1     1     1     1     1     1     1     1     1     1     1     1
          1     1     1     1     1     1     1     1     1     1     1     1     1     1     1     1     1     1     1     1
          1     1     1     0     0     0     0     0     0     0     0     0     0     0     0     0     0     0     0     0
          0     0     0     0     0     0     0     0     0     0     0     0     0     0     0     0
 124      1     1     0     1     1     1     1     1     1     1     1     1     1     1     1     1     1     1     1     1
          1     1     1     1     1     1     1     1     1     1     1     1     1     1     1     1     1     1     1     1
          1     1     1     1     0     0     0     0     0     0     0     0     0     0     0     0     0     0     0     0
          0     0     0     0     0     0     0     0     0     0     0     0     0     0     0     0
 125      1     1     1     1     1     1     1     1     1     1     1     1     1     1     1     1     1     1     1     1
          1     1     1     1     1     1     1     1     1     1     1     1     1     1     1     1     1     1     1     1
          1     1     1     1     1     0     0     0     0     0     0     0     0     0     0     0     0     0     0     0
          0     0     0     0     0     0     0     0     0     0     0     0     0     0     0     0
 126      1     1     1     1     1     1     1     1     1     1     1     1     1     1     1     1     1     1     1     1
          1     1     1     1     1     1     1     1     1     1     1     1     1     1     1     1     1     1     1     1
          1     1     1     1     1     0     0     0     0     0     0     0     0     0     0     0     0     0     0     0
          0     0     0     0     0     0     0     0     0     0     0     0     0     0     0     0
 127      1     1     1     1     1     1     1     1     1     1     1     1     1     1     1     1     1     1     1     1
          1     1     1     1     1     1     1     1     1     1     1     1     1     1     1     1     1     1     1     1
          1     1     1     1     1     1     0     0     0     0     0     0     0     0     0     0     0     0     0     0
          0     0     0     0     0     0     0     0     0     0     0     0     0     0     0     0
 128      1     1     1     1     1     1     1     1     1     1     1     1     1     1     1     1     1     1     1     1
          1     1     1     1     1     1     1     1     1     1     1     1     1     1     1     1     1     1     1     1
          1     1     1     1     1     1     1     0     0     0     0     0     0     0     0     0     0     0     0     0
          0     0     0     0     0     0     0     0     0     0     0     0     0     0     0     0
 129      1     1     1     1     1     1     1     1     1     1     1     1     1     1     1     1     1     1     1     1
          1     1     1     1     1     1     1     1     1     1     1     1     1     1     1     1     1     1     1     1
          1     1     1     1     1     1     1     1     0     0     0     0     0     0     0     0     0     0     0     0
          0     0     0     0     0     0     0     0     0     0     0     0     0     0     0     0
 130      1     1     1     1     1     1     1     1     1     1     1     1     1     1     1     1     1     1     1     1
          1     1     1     1     1     1     1     1     1     1     1     1     1     1     1     1     1     1     1     1
          1     1     1     1     1     1     1     1     1     0     0     0     0     0     0     0     0     0     0     0
          0     0     0     0     0     0     0     0     0     0     0     0     0     0     0     0
 131      1     1     1     1     1     1     1     1     1     1     1     0     0     0     0     0     0     1     1     1
          1     1     1     1     1     1     1     1     1     1     1     1     1     1     1     1     1     1     1     1
          0     0     0     0     0     1     1     1     1     0     0     0     0     0     0     0     0     0     0     0
          0     0     0     0     0     0     0     0     0     0     0     0     0     0     0     0



             ZONE ARRAY: sy01_Z1   
 READING ON UNIT 5015 WITH FORMAT: (FREE)              

          1     2     3     4     5     6     7     8     9    10    11    12    13    14    15    16    17    18    19    20
         21    22    23    24    25    26    27    28    29    30    31    32    33    34    35    36    37    38    39    40
         41    42    43    44    45    46    47    48    49    50    51    52    53    54    55    56    57    58    59    60
         61    62    63    64    65    66    67    68    69    70    71    72    73    74    75    76
 ............................................................................................................................
   1      0     0     0     0     0     0     0     0     0     0     0     0     0     0     0     0     0     0     0     0
          0     0     0     0     0     0     0     0     0     0     0     0     0     0     0     0     0     0     0     0
          0     0     0     0     0     0     0     0     0     0     0     1     1     0     0     0     0     0     0     0
          0     0     0     0     0     0     0     0     0     0     0     1     1     1     0     1
   2      0     0     0     0     0     0     0     0     0     0     0     0     0     0     0     0     0     0     0     0
          0     0     0     0     0     0     0     0     0     0     0     0     0     0     0     0     0     0     0     0
          0     0     0     0     0     0     0     0     0     0     0     1     1     1     0     0     0     0     0     0
          0     0     0     0     0     0     0     1     1     1     1     1     1     1     1     1
   3      0     0     0     0     0     0     0     0     0     0     0     0     0     0     0     0     0     0     0     0
          0     0     0     0     0     0     0     0     0     0     0     0     0     0     0     0     0     0     0     0
          0     0     0     0     0     0     0     0     0     0     0     1     1     1     0     0     0     0     0     0
          0     0     1     1     1     1     1     1     1     1     1     1     1     1     1     1
   4      0     0     0     0     0     0     0     0     0     0     0     0     0     0     0     0     0     0     0     0
          0     0     0     0     0     0     0     0     0     0     0     0     0     0     0     0     0     0     0     0
          0     0     0     0     0     0     0     0     0     0     1     1     1     1     1     0     0     1     1     1
          1     1     1     1     1     1     1     1     1     1     1     1     1     1     1     1
   5      0     0     0     0     0     0     0     0     0     0     0     0     0     0     0     0     0     0     0     0
          0     0     0     0     0     0     0     0     0     0     0     0     0     0     0     0     0     0     0     0
          0     0     0     0     0     0     0     0     0     0     1     1     1     1     1     1     1     1     1     1
          1     1     1     1     1     1     1     1     1     1     1     1     1     1     1     0
   6      0     0     0     0     0     0     0     0     0     0     0     0     0     0     0     0     0     0     0     0
          0     0     0     0     0     0     0     0     0     0     0     0     0     0     0     0     0     0     0     0
          0     0     0     0     0     0     0     0     0     1     1     1     1     1     1     1     1     1     1     1
          1     1     1     1     1     1     1     1     1     1     1     1     1     1     1     0
   7      0     0     0     0     0     0     0     0     0     0     0     0     0     0     0     0     0     0     0     0
          0     0     0     0     0     0     0     0     0     0     0     0     0     0     0     0     0     0     0     0
          0     0     0     0     0     0     0     0     0     1     1     1     1     1     1     1     1     1     1     1
          1     1     1     1     1     1     1     1     1     1     1     1     1     1     1     0
   8      0     0     0     0     0     0     0     0     0     0     0     0     0     0     0     0     0     0     0     0
          0     0     0     0     0     0     0     0     0     0     0     0     0     0     0     0     0     0     0     0
          0     0     0     0     0     0     0     0     1     1     1     1     1     1     1     1     1     1     1     1
          1     1     1     1     1     1     1     1     1     1     1     1     1     1     1     1
   9      0     0     0     0     0     0     0     0     0     0     0     0     0     0     0     0     0     0     0     0
          0     0     0     0     0     0     0     0     0     0     0     0     0     0     0     0     0     0     0     0
          0     0     0     0     0     0     0     1     1     1     1     1     1     1     1     1     1     1     1     1
          1     1     1     1     1     1     1     1     1     1     1     1     1     1     1     1
  10      0     0     0     0     0     0     0     0     0     0     0     0     0     0     0     0     0     0     0     0
          0     0     0     0     0     0     0     0     0     0     0     0     0     0     0     0     0     0     0     0
          0     0     0     0     0     0     1     1     1     1     1     1     1     1     1     1     1     1     1     1
          1     1     1     1     1     1     1     1     1     1     1     1     1     1     1     1
  11      0     0     0     0     0     0     0     0     0     0     0     0     0     0     0     0     0     0     0     0
          0     0     0     0     0     0     0     0     0     0     0     0     0     0     0     0     0     0     0     0
          0     0     0     0     0     1     1     1     1     1     1     1     1     1     1     1     1     1     1     1
          1     1     1     1     1     1     1     1     1     1     1     1     1     1     1     0
  12      0     0     0     0     0     0     0     0     0     0     0     0     0     0     0     0     0     0     0     0
          0     0     0     0     0     0     0     0     0     0     0     0     0     0     0     0     0     0     0     0
          0     0     0     0     1     1     1     1     1     1     1     1     1     1     1     1     1     1     1     1
          1     1     1     1     1     1     1     1     1     1     1     1     1     1     1     0
  13      0     0     0     0     0     0     0     0     0     0     0     0     0     0     0     0     0     0     0     0
          0     0     0     0     0     0     0     0     0     0     0     0     0     0     0     0     0     0     0     0
          0     0     0     1     1     1     1     1     1     1     1     1     1     1     1     1     1     1     1     1
          1     1     1     1     1     1     1     1     1     1     1     1     1     1     1     0
  14      0     0     0     0     0     0     0     0     0     0     0     0     0     0     0     0     0     0     0     0
          0     0     0     0     0     0     0     0     0     0     0     0     0     0     0     0     0     0     0     0
          0     0     1     1     1     1     1     1     1     1     1     1     1     1     1     1     1     1     1     1
          1     1     1     1     1     1     1     1     1     1     1     1     1     1     1     1
  15      0     0     0     0     0     0     0     0     0     0     0     0     0     0     0     0     0     0     0     0
          0     0     0     0     0     0     0     0     0     0     0     0     0     0     0     0     0     0     0     0
          0     1     1     1     1     1     1     1     1     1     1     1     1     1     1     1     1     1     1     1
          1     1     1     1     1     1     1     1     1     1     1     1     1     1     1     1
  16      0     0     0     0     0     0     0     0     0     0     0     0     0     0     0     0     0     0     0     0
          0     0     0     0     0     0     0     0     0     0     0     0     0     0     0     0     0     0     0     0
          1     1     1     1     1     1     1     1     1     1     1     1     1     1     1     1     1     1     1     1
          1     1     1     1     1     1     1     1     1     1     1     1     1     1     1     0
  17      0     0     0     0     0     0     0     0     0     0     0     0     0     0     0     0     0     0     0     0
          0     0     0     0     0     0     0     0     0     0     0     0     0     0     0     0     0     0     0     1
          1     1     1     1     1     1     1     1     1     1     1     1     1     1     1     1     1     1     1     1
          1     1     1     1     1     1     1     1     1     1     1     1     1     1     1     1
  18      0     0     0     0     0     0     0     0     0     0     0     0     0     0     0     0     0     0     0     0
          0     0     0     0     0     0     0     0     0     0     0     0     0     0     0     0     0     0     1     1
          1     1     1     1     1     1     1     1     1     1     1     1     1     1     1     1     1     1     1     1
          1     1     1     1     1     1     1     1     1     1     1     1     1     1     1     1
  19      0     0     0     0     0     0     0     0     0     0     0     0     0     0     0     0     0     0     0     0
          0     0     0     0     0     0     0     0     0     0     0     0     0     0     0     0     0     1     1     1
          1     1     1     1     1     1     1     1     1     1     1     1     1     1     1     1     1     1     1     1
          1     1     1     1     1     1     1     1     1     1     1     1     1     1     1     1
  20      0     0     0     0     0     0     0     0     0     0     0     0     0     0     0     0     0     0     0     0
          0     0     0     0     0     0     0     0     0     0     0     0     0     0     0     0     1     1     1     1
          1     1     1     1     1     1     1     1     1     1     1     1     1     1     1     1     1     1     1     1
          1     1     1     1     1     1     1     1     1     1     1     1     1     1     1     1
  21      1     1     0     0     0     0     0     0     0     0     0     0     0     0     0     0     0     0     0     0
          0     0     0     0     0     0     0     0     0     0     0     0     0     0     0     1     1     1     1     1
          1     1     1     1     1     1     1     1     1     1     1     1     1     1     1     1     1     1     1     1
          1     1     1     1     1     1     1     1     1     1     1     1     1     1     1     1
  22      1     1     1     1     1     0     0     0     0     0     0     0     0     0     0     0     0     0     0     0
          0     0     0     0     0     0     0     0     0     0     0     0     1     1     1     1     1     1     1     1
          1     1     1     1     1     1     1     1     1     1     1     1     1     1     1     1     1     1     1     1
          1     1     1     1     1     1     1     1     1     1     1     1     1     1     1     1
  23      1     1     1     1     1     1     1     0     0     0     0     0     0     0     0     0     0     0     0     0
          0     0     0     0     0     0     0     0     0     0     0     0     1     1     1     1     1     1     1     1
          1     1     1     1     1     1     1     1     1     1     1     1     1     1     1     1     1     1     1     1
          1     1     1     1     1     1     1     1     1     1     1     1     1     1     1     1
  24      1     1     1     1     1     1     1     1     1     1     0     0     0     0     0     0     0     0     0     0
          0     0     0     0     0     0     0     0     0     0     0     0     1     1     1     1     1     1     1     1
          1     1     1     1     1     1     1     1     1     1     1     1     1     1     1     1     1     1     1     1
          1     1     1     1     1     1     1     1     1     1     1     1     1     1     1     1
  25      1     1     1     1     1     1     1     1     1     1     1     1     1     0     0     0     0     0     0     0
          0     0     0     0     0     0     0     0     0     1     1     1     1     1     1     1     1     1     1     1
          1     1     1     1     1     1     1     1     1     1     1     1     1     1     1     1     1     1     1     1
          1     1     1     1     1     1     1     1     1     1     1     1     1     1     1     1
  26      1     1     1     1     1     1     1     1     1     1     1     1     1     1     1     1     1     0     0     0
          0     0     0     0     0     0     1     1     1     1     1     1     1     1     1     1     1     1     1     1
          1     1     1     1     1     1     1     1     1     1     1     1     1     1     1     1     1     1     1     1
          1     1     1     1     1     1     1     1     1     1     1     1     1     1     1     1
  27      1     1     1     1     1     1     1     1     1     1     1     1     1     1     1     1     1     1     1     1
          1     1     1     1     1     1     1     1     1     1     1     1     1     1     1     1     1     1     1     1
          1     1     1     1     1     1     1     1     1     1     1     1     1     1     1     1     1     1     1     1
          1     1     1     1     1     1     1     1     1     1     1     1     1     1     1     0
  28      1     1     1     1     1     1     1     1     1     1     1     1     1     1     1     1     1     1     1     1
          1     1     1     1     1     1     1     1     1     1     1     1     1     1     1     1     1     1     1     1
          1     1     1     1     1     1     1     1     1     1     1     1     1     1     1     1     1     1     1     1
          1     1     1     1     1     1     1     1     1     1     1     1     1     1     1     0
  29      1     1     1     1     1     1     1     1     1     1     1     1     1     1     1     1     1     1     1     1
          1     1     1     1     1     1     1     1     1     1     1     1     1     1     1     1     1     1     1     1
          1     1     1     1     1     1     1     1     1     1     1     1     1     1     1     1     1     1     1     1
          1     1     1     1     1     1     1     1     1     1     1     1     1     1     1     0
  30      1     1     1     1     1     1     1     1     1     1     1     1     1     1     1     1     1     1     1     1
          1     1     1     1     1     1     1     1     1     1     1     1     1     1     1     1     1     1     1     1
          1     1     1     1     1     1     1     1     1     1     1     1     1     1     1     1     1     1     1     1
          1     1     1     1     1     1     1     1     1     1     1     1     1     1     1     0
  31      1     1     1     1     1     1     1     1     1     1     1     1     1     1     1     1     1     1     1     1
          1     1     1     1     1     1     1     1     1     1     1     1     1     1     1     1     1     1     1     1
          1     1     1     1     1     1     1     1     1     1     1     1     1     1     1     1     1     1     1     1
          1     1     1     1     1     1     1     1     1     1     1     1     1     1     0     0
  32      0     1     1     1     1     1     1     1     1     1     1     1     1     1     1     1     1     1     1     1
          1     1     1     1     1     1     1     1     1     1     1     1     1     1     1     1     1     1     1     1
          1     1     1     1     1     1     1     1     1     1     1     1     1     1     1     1     1     1     1     1
          1     1     1     1     1     1     1     1     1     1     1     1     1     1     0     0
  33      0     0     0     1     1     1     1     1     1     1     1     1     1     1     1     1     1     1     1     1
          1     1     1     1     1     1     1     1     1     1     1     1     1     1     1     1     1     1     1     1
          1     1     1     1     1     1     1     1     1     1     1     1     1     1     1     1     1     1     1     1
          1     1     1     1     1     1     1     1     1     1     1     1     1     0     0     0
  34      0     0     0     0     0     1     1     1     1     1     1     1     1     1     1     1     1     1     1     1
          1     1     1     1     1     1     1     1     1     1     1     1     1     1     1     1     1     1     1     1
          1     1     1     1     1     1     1     1     1     1     1     1     1     1     1     1     1     1     1     1
          1     1     1     1     1     1     1     1     1     1     1     1     1     0     0     0
  35      0     0     0     0     0     0     1     1     1     1     1     1     1     1     1     1     1     1     1     1
          1     1     1     1     1     1     1     1     1     1     1     1     1     1     1     1     1     1     1     1
          1     1     1     1     1     1     1     1     1     1     1     1     1     1     1     1     1     1     1     1
          1     1     1     1     1     1     1     1     1     1     1     1     0     0     0     0
  36      0     0     0     0     0     0     0     0     1     1     1     1     1     1     1     1     1     1     1     1
          1     1     1     1     1     1     1     1     1     1     1     1     1     1     1     1     1     1     1     1
          1     1     1     1     1     1     1     1     1     1     1     1     1     1     1     1     1     1     1     1
          1     1     1     1     1     1     1     1     1     1     1     1     0     0     0     0
  37      1     1     1     0     0     0     0     0     0     0     1     1     1     1     1     1     1     1     1     1
          1     1     1     1     1     1     1     1     1     1     1     1     1     1     1     1     1     1     1     1
          1     1     1     1     1     1     1     1     1     1     1     1     1     1     1     1     1     1     1     1
          1     1     1     1     1     1     1     1     1     1     1     1     0     0     0     0
  38      1     1     1     1     1     1     1     0     0     0     0     1     1     1     1     1     1     1     1     1
          1     1     1     1     1     1     1     1     1     1     1     1     1     1     1     1     1     1     1     1
          1     1     1     1     1     1     1     1     1     1     1     1     1     1     1     1     1     1     1     1
          1     1     1     1     1     1     1     1     1     0     1     1     0     0     0     0
  39      1     1     1     1     1     1     1     1     1     1     1     0     0     1     1     1     1     1     1     1
          1     1     1     1     1     1     1     1     1     1     1     1     1     1     1     1     1     1     1     1
          1     1     1     1     1     1     1     1     1     1     1     1     1     1     1     1     1     1     1     1
          1     1     1     1     1     1     1     1     1     1     1     0     0     0     0     0
  40      1     1     1     1     1     1     1     1     1     1     1     1     1     1     1     1     1     1     1     1
          1     1     1     1     1     1     1     1     1     1     1     1     1     1     1     1     1     1     1     1
          1     1     1     1     1     1     1     1     1     1     1     1     1     1     1     1     1     1     1     1
          1     1     1     1     1     1     1     1     1     1     1     0     0     0     0     0
  41      1     1     1     1     1     1     1     1     1     1     1     1     1     1     1     1     1     1     1     1
          1     1     1     1     1     1     1     1     1     1     1     1     1     1     1     1     1     1     1     1
          1     1     1     1     1     1     1     1     1     1     1     1     1     1     1     1     1     1     1     1
          1     1     1     1     1     1     1     1     1     1     1     1     0     0     0     0
  42      1     1     1     1     1     1     1     1     1     1     1     1     1     1     1     1     1     1     1     1
          1     1     1     1     1     1     1     1     1     1     1     1     1     1     1     1     1     1     1     1
          1     1     1     1     1     1     1     1     1     1     1     1     1     1     1     1     1     1     1     1
          1     1     1     1     1     1     1     1     1     1     1     1     0     0     0     0
  43      1     1     1     1     1     1     1     1     1     1     1     1     1     1     1     1     1     1     1     1
          1     1     1     1     1     1     1     1     1     1     1     1     1     1     1     1     1     1     1     1
          1     1     1     1     1     1     1     1     1     1     1     1     1     1     1     1     1     1     1     1
          1     1     1     1     1     1     1     1     1     1     1     1     1     0     0     0
  44      1     1     1     1     1     1     1     1     1     1     1     1     1     1     1     1     1     1     1     1
          1     1     1     1     1     1     1     1     1     1     1     1     1     1     1     1     1     1     1     1
          1     1     1     1     1     1     1     1     1     1     1     1     1     1     1     1     1     1     1     1
          1     1     1     1     1     1     1     1     1     1     1     1     1     1     0     0
  45      1     1     1     1     1     1     1     1     1     1     1     1     1     1     1     1     1     1     1     1
          1     1     1     1     1     1     1     1     1     1     1     1     1     1     1     1     1     1     1     1
          1     1     1     1     1     1     1     1     1     1     1     1     1     1     1     1     1     1     1     1
          1     1     1     1     1     1     1     1     1     1     1     1     1     1     1     0
  46      1     1     1     1     1     1     1     1     1     1     1     1     1     1     1     1     1     1     1     1
          1     1     1     1     1     1     1     1     1     1     1     1     1     1     1     1     1     1     1     1
          1     1     1     1     1     1     1     1     1     1     1     1     1     1     1     1     1     1     1     1
          1     1     1     1     1     1     1     1     1     1     1     1     1     1     1     1
  47      1     1     1     1     1     1     1     1     1     1     1     1     1     1     1     1     1     1     1     1
          1     1     1     1     1     1     1     1     1     1     1     1     1     1     1     1     1     1     1     1
          1     1     1     1     1     1     1     1     1     1     1     1     1     1     1     1     1     1     1     1
          1     1     1     1     1     1     1     1     1     1     1     1     1     1     1     1
  48      1     1     1     1     1     1     1     1     1     1     1     1     1     1     1     1     1     1     1     1
          1     1     1     1     1     1     1     1     1     1     1     1     1     1     1     1     1     1     1     1
          1     1     1     1     1     1     1     1     1     1     1     1     1     1     1     1     1     1     1     1
          1     1     1     1     1     1     1     1     1     1     1     1     1     1     1     1
  49      1     1     1     1     1     1     1     1     1     1     1     1     1     1     1     1     1     1     1     1
          1     1     1     1     1     1     1     1     1     1     1     1     1     1     1     1     1     1     1     1
          1     1     1     1     1     1     1     1     1     1     1     1     1     1     1     1     1     1     1     1
          1     1     1     1     1     1     1     1     1     1     1     1     1     1     1     1
  50      1     1     1     1     1     1     1     1     1     1     1     1     1     1     1     1     1     1     1     1
          1     1     1     1     1     1     1     1     1     1     1     1     1     1     1     1     1     1     1     1
          1     1     1     1     1     1     1     1     1     1     1     1     1     1     1     1     1     1     1     1
          1     1     1     1     1     1     1     1     1     1     1     1     1     1     1     1
  51      1     1     1     1     1     1     1     1     1     1     1     1     1     1     1     1     1     1     1     1
          1     1     1     1     1     1     1     1     1     1     1     1     1     1     1     1     1     1     1     1
          1     1     1     1     1     1     1     1     1     1     1     1     1     1     1     1     1     1     1     1
          1     1     1     1     1     1     1     1     1     1     1     1     1     1     1     1
  52      1     1     1     1     1     1     1     1     1     1     1     1     1     1     1     1     1     1     1     1
          1     1     1     1     1     1     1     1     1     1     1     1     1     1     1     1     1     1     1     1
          1     1     1     1     1     1     1     1     1     1     1     1     1     1     1     1     1     1     1     1
          1     1     1     1     1     1     1     1     1     1     1     1     1     1     1     1
  53      1     1     1     1     1     1     1     1     1     1     1     1     1     1     1     1     1     1     1     1
          1     1     1     1     1     1     1     1     1     1     1     1     1     1     1     1     1     1     1     1
          1     1     1     1     1     1     1     1     1     1     1     1     1     1     1     1     1     1     1     1
          1     1     1     1     1     1     1     1     1     1     1     1     1     1     1     1
  54      1     1     1     1     1     1     1     1     1     1     1     1     1     1     1     1     1     1     1     1
          1     1     1     1     1     1     1     1     1     1     1     1     1     1     1     1     1     1     1     1
          1     1     1     1     1     1     1     1     1     1     1     1     1     1     1     1     1     1     1     1
          1     1     1     1     1     1     1     1     1     1     1     1     1     1     1     1
  55      1     1     1     1     1     1     1     1     1     1     1     1     1     1     1     1     1     1     1     1
          1     1     1     1     1     1     1     1     1     1     1     1     1     1     1     1     1     1     1     1
          1     1     1     1     1     1     1     1     1     1     1     1     1     1     1     1     1     1     1     1
          1     1     1     1     1     1     1     1     1     1     1     1     1     1     1     1
  56      1     1     1     1     1     1     1     1     1     1     1     1     1     1     1     1     1     1     1     1
          1     1     1     1     1     1     1     1     1     1     1     1     1     1     1     1     1     1     1     1
          1     1     1     1     1     1     1     1     1     1     1     1     1     1     1     1     1     1     1     1
          1     1     1     1     1     1     1     1     1     1     1     1     1     1     1     1
  57      1     1     1     1     1     1     1     1     1     1     1     1     1     1     1     1     1     1     1     1
          1     1     1     1     1     1     1     1     1     1     1     1     1     1     1     1     1     1     1     1
          1     1     1     1     1     1     1     1     1     1     1     1     1     1     1     1     1     1     1     1
          1     1     1     1     1     1     1     1     1     1     1     1     1     1     1     1
  58      1     1     1     1     1     1     1     1     1     1     1     1     1     1     1     1     1     1     1     1
          1     1     0     1     1     1     1     1     1     1     1     1     1     1     1     1     1     1     1     1
          1     1     1     1     1     1     1     1     1     1     1     1     1     1     1     1     1     1     1     1
          1     1     1     1     1     1     1     1     1     1     1     1     1     1     1     1
  59      1     1     1     1     1     1     1     1     1     1     1     1     1     1     1     1     1     1     1     1
          1     1     1     1     1     1     1     1     1     1     1     1     1     1     1     1     1     1     1     1
          1     1     1     1     1     1     1     1     1     1     1     1     1     1     1     1     1     1     1     1
          1     1     1     1     1     1     1     1     1     1     1     1     1     1     1     1
  60      1     1     1     1     1     1     1     1     1     1     1     1     1     1     1     1     1     1     1     1
          1     1     1     1     1     1     1     1     1     1     1     1     1     1     1     1     1     1     1     1
          1     1     1     1     1     1     1     1     1     1     1     1     1     1     1     1     1     1     1     1
          1     1     1     1     1     1     1     1     1     1     1     1     1     1     1     1
  61      1     1     1     1     1     1     1     1     1     1     1     1     1     1     1     1     1     1     1     1
          1     0     1     1     1     1     1     1     1     1     1     1     1     1     1     1     1     1     1     1
          1     1     1     1     1     1     1     1     1     1     1     1     1     1     1     1     1     1     1     1
          1     1     1     1     1     1     1     1     1     1     1     1     1     1     1     1
  62      1     1     1     1     1     1     1     1     1     1     1     1     1     1     1     1     1     1     1     1
          1     0     1     1     1     1     1     1     1     1     1     1     1     1     1     1     1     1     1     1
          1     1     1     1     1     1     1     1     1     1     1     1     1     1     1     1     1     1     1     1
          1     1     1     1     1     1     1     1     1     1     1     1     1     1     1     1
  63      1     1     1     1     1     1     1     1     1     1     1     1     1     1     1     1     1     1     1     1
          1     1     1     1     1     1     1     1     1     1     1     1     1     1     1     1     1     1     1     1
          1     1     1     1     1     1     1     1     1     1     1     1     1     1     1     1     1     1     1     1
          1     1     1     1     1     1     1     1     1     1     1     1     1     1     1     1
  64      1     1     1     1     1     1     1     1     1     1     1     1     1     1     1     1     1     1     1     1
          0     1     1     1     1     1     1     1     1     1     1     1     1     1     1     1     1     1     1     1
          1     1     1     1     1     1     1     1     1     1     1     1     1     1     1     1     1     1     1     1
          1     1     1     1     1     1     1     1     1     1     1     1     1     1     1     1
  65      1     1     1     1     1     1     1     1     1     1     1     1     1     1     1     1     1     1     1     1
          0     1     1     1     1     1     1     1     1     1     1     1     1     1     1     1     1     1     1     1
          1     1     1     1     1     1     1     1     1     1     1     1     1     1     1     1     1     1     1     1
          1     1     1     1     1     1     1     1     1     1     1     1     1     1     1     1
  66      1     1     1     1     1     1     1     1     1     1     1     1     1     1     1     1     1     1     1     1
          0     1     1     1     1     1     1     1     1     1     1     1     1     1     1     1     1     1     1     1
          1     1     1     1     1     1     1     1     1     1     1     1     1     1     1     1     1     1     1     1
          1     1     1     1     1     1     1     1     1     1     1     1     1     1     1     1
  67      1     1     1     1     1     1     1     1     1     1     1     1     1     1     1     1     1     1     1     1
          1     1     1     1     1     1     1     1     1     1     1     1     1     1     1     1     1     1     1     1
          1     1     1     1     1     1     1     1     1     1     1     1     1     1     1     1     1     1     1     1
          1     1     1     1     1     1     1     1     1     1     1     1     1     1     1     1
  68      1     1     1     1     1     1     1     1     1     1     1     1     1     1     1     1     1     1     1     0
          1     1     1     1     1     1     1     1     1     1     1     1     1     1     1     1     1     1     1     1
          1     1     1     1     1     1     1     1     1     1     1     1     1     1     1     1     1     1     1     1
          1     1     1     1     1     1     1     1     1     1     1     1     1     1     1     1
  69      1     1     1     1     1     1     1     1     1     1     1     1     1     1     1     1     1     1     1     0
          1     1     1     1     1     1     1     1     1     1     1     1     1     1     1     1     1     1     1     1
          1     1     1     1     1     1     1     1     1     1     1     1     1     1     1     1     1     1     1     1
          1     1     1     1     1     1     1     1     1     1     1     1     1     1     1     1
  70      1     1     1     1     1     1     1     1     1     1     1     1     1     1     1     1     1     1     1     0
          1     1     1     1     1     1     1     1     1     1     1     1     1     1     1     1     1     1     1     1
          1     1     1     1     1     1     1     1     1     1     1     1     1     1     1     1     1     1     1     1
          1     1     1     1     1     1     1     1     1     1     1     1     1     1     1     1
  71      1     1     1     1     1     1     1     1     1     1     1     1     1     1     1     1     1     1     0     1
          1     1     1     1     1     1     1     1     1     1     1     1     1     1     1     1     1     1     1     1
          1     1     1     1     1     1     1     1     1     1     1     1     1     1     1     1     1     1     1     1
          1     1     1     1     1     1     1     1     1     1     1     1     1     1     1     1
  72      0     0     0     0     0     0     0     0     0     0     0     0     0     0     0     0     0     0     0     0
          0     0     0     0     0     0     0     0     0     0     0     0     0     0     0     0     0     0     0     0
          0     0     0     0     0     0     0     0     0     0     0     0     0     0     0     0     0     0     0     0
          0     0     0     0     0     0     0     0     0     0     0     0     0     0     0     0
  73      0     0     0     0     0     0     0     0     0     0     0     0     0     0     0     0     0     0     0     0
          0     0     0     0     0     0     0     0     0     0     0     0     0     0     0     0     0     0     0     0
          0     0     0     0     0     0     0     0     0     0     0     0     0     0     0     0     0     0     0     0
          0     0     0     0     0     0     0     0     0     0     0     0     0     0     0     0
  74      0     0     0     0     0     0     0     0     0     0     0     0     0     0     0     0     0     0     0     0
          0     0     0     0     0     0     0     0     0     0     0     0     0     0     0     0     0     0     0     0
          0     0     0     0     0     0     0     0     0     0     0     0     0     0     0     0     0     0     0     0
          0     0     0     0     0     0     0     0     0     0     0     0     0     0     0     0
  75      0     0     0     0     0     0     0     0     0     0     0     0     0     0     0     0     0     0     0     0
          0     0     0     0     0     0     0     0     0     0     0     0     0     0     0     0     0     0     0     0
          0     0     0     0     0     0     0     0     0     0     0     0     0     0     0     0     0     0     0     0
          0     0     0     0     0     0     0     0     0     0     0     0     0     0     0     0
  76      0     0     0     0     0     0     0     0     0     0     0     0     0     0     0     0     0     0     0     0
          0     0     0     0     0     0     0     0     0     0     0     0     0     0     0     0     0     0     0     0
          0     0     0     0     0     0     0     0     0     0     0     0     0     0     0     0     0     0     0     0
          0     0     0     0     0     0     0     0     0     0     0     0     0     0     0     0
  77      0     0     0     0     0     0     0     0     0     0     0     0     0     0     0     0     0     0     0     0
          0     0     0     0     0     0     0     0     0     0     0     0     0     0     0     0     0     0     0     0
          0     0     0     0     0     0     0     0     0     0     0     0     0     0     0     0     0     0     0     0
          0     0     0     0     0     0     0     0     0     0     0     0     0     0     0     0
  78      0     0     0     0     0     0     0     0     0     0     0     0     0     0     0     0     0     0     0     0
          0     0     0     0     0     0     0     0     0     0     0     0     0     0     0     0     0     0     0     0
          0     0     0     0     0     0     0     0     0     0     0     0     0     0     0     0     0     0     0     0
          0     0     0     0     0     0     0     0     0     0     0     0     0     0     0     0
  79      0     0     0     0     0     0     0     0     0     0     0     0     0     0     0     0     0     0     0     0
          0     0     0     0     0     0     0     0     0     0     0     0     0     0     0     0     0     0     0     0
          0     0     0     0     0     0     0     0     0     0     0     0     0     0     0     0     0     0     0     0
          0     0     0     0     0     0     0     0     0     0     0     0     0     0     0     0
  80      0     0     0     0     0     0     0     0     0     0     0     0     0     0     0     0     0     0     0     0
          0     0     0     0     0     0     0     0     0     0     0     0     0     0     0     0     0     0     0     0
          0     0     0     0     0     0     0     0     0     0     0     0     0     0     0     0     0     0     0     0
          0     0     0     0     0     0     0     0     0     0     0     0     0     0     0     0
  81      0     0     0     0     0     0     0     0     0     0     0     0     0     0     0     0     0     0     0     0
          0     0     0     0     0     0     0     0     0     0     0     0     0     0     0     0     0     0     0     0
          0     0     0     0     0     0     0     0     0     0     0     0     0     0     0     0     0     0     0     0
          0     0     0     0     0     0     0     0     0     0     0     0     0     0     0     0
  82      0     0     0     0     0     0     0     0     0     0     0     0     0     0     0     0     0     0     0     0
          0     0     0     0     0     0     0     0     0     0     0     0     0     0     0     0     0     0     0     0
          0     0     0     0     0     0     0     0     0     0     0     0     0     0     0     0     0     0     0     0
          0     0     0     0     0     0     0     0     0     0     0     0     0     0     0     0
  83      0     0     0     0     0     0     0     0     0     0     0     0     0     0     0     0     0     0     0     0
          0     0     0     0     0     0     0     0     0     0     0     0     0     0     0     0     0     0     0     0
          0     0     0     0     0     0     0     0     0     0     0     0     0     0     0     0     0     0     0     0
          0     0     0     0     0     0     0     0     0     0     0     0     0     0     0     0
  84      0     0     0     0     0     0     0     0     0     0     0     0     0     0     0     0     0     0     0     0
          0     0     0     0     0     0     0     0     0     0     0     0     0     0     0     0     0     0     0     0
          0     0     0     0     0     0     0     0     0     0     0     0     0     0     0     0     0     0     0     0
          0     0     0     0     0     0     0     0     0     0     0     0     0     0     0     0
  85      0     0     0     0     0     0     0     0     0     0     0     0     0     0     0     0     0     0     0     0
          0     0     0     0     0     0     0     0     0     0     0     0     0     0     0     0     0     0     0     0
          0     0     0     0     0     0     0     0     0     0     0     0     0     0     0     0     0     0     0     0
          0     0     0     0     0     0     0     0     0     0     0     0     0     0     0     0
  86      0     0     0     0     0     0     0     0     0     0     0     0     0     0     0     0     0     0     0     0
          0     0     0     0     0     0     0     0     0     0     0     0     0     0     0     0     0     0     0     0
          0     0     0     0     0     0     0     0     0     0     0     0     0     0     0     0     0     0     0     0
          0     0     0     0     0     0     0     0     0     0     0     0     0     0     0     0
  87      0     0     0     0     0     0     0     0     0     0     0     0     0     0     0     0     0     0     0     0
          0     0     0     0     0     0     0     0     0     0     0     0     0     0     0     0     0     0     0     0
          0     0     0     0     0     0     0     0     0     0     0     0     0     0     0     0     0     0     0     0
          0     0     0     0     0     0     0     0     0     0     0     0     0     0     0     0
  88      0     0     0     0     0     0     0     0     0     0     0     0     0     0     0     0     0     0     0     0
          0     0     0     0     0     0     0     0     0     0     0     0     0     0     0     0     0     0     0     0
          0     0     0     0     0     0     0     0     0     0     0     0     0     0     0     0     0     0     0     0
          0     0     0     0     0     0     0     0     0     0     0     0     0     0     0     0
  89      0     0     0     0     0     0     0     0     0     0     0     0     0     0     0     0     0     0     0     0
          0     0     0     0     0     0     0     0     0     0     0     0     0     0     0     0     0     0     0     0
          0     0     0     0     0     0     0     0     0     0     0     0     0     0     0     0     0     0     0     0
          0     0     0     0     0     0     0     0     0     0     0     0     0     0     0     0
  90      0     0     0     0     0     0     0     0     0     0     0     0     0     0     0     0     0     0     0     0
          0     0     0     0     0     0     0     0     0     0     0     0     0     0     0     0     0     0     0     0
          0     0     0     0     0     0     0     0     0     0     0     0     0     0     0     0     0     0     0     0
          0     0     0     0     0     0     0     0     0     0     0     0     0     0     0     0
  91      0     0     0     0     0     0     0     0     0     0     0     0     0     0     0     0     0     0     0     0
          0     0     0     0     0     0     0     0     0     0     0     0     0     0     0     0     0     0     0     0
          0     0     0     0     0     0     0     0     0     0     0     0     0     0     0     0     0     0     0     0
          0     0     0     0     0     0     0     0     0     0     0     0     0     0     0     0
  92      0     0     0     0     0     0     0     0     0     0     0     0     0     0     0     0     0     0     0     0
          0     0     0     0     0     0     0     0     0     0     0     0     0     0     0     0     0     0     0     0
          0     0     0     0     0     0     0     0     0     0     0     0     0     0     0     0     0     0     0     0
          0     0     0     0     0     0     0     0     0     0     0     0     0     0     0     0
  93      0     0     0     0     0     0     0     0     0     0     0     0     0     0     0     0     0     0     0     0
          0     0     0     0     0     0     0     0     0     0     0     0     0     0     0     0     0     0     0     0
          0     0     0     0     0     0     0     0     0     0     0     0     0     0     0     0     0     0     0     0
          0     0     0     0     0     0     0     0     0     0     0     0     0     0     0     0
  94      0     0     0     0     0     0     0     0     0     0     0     0     0     0     0     0     0     0     0     0
          0     0     0     0     0     0     0     0     0     0     0     0     0     0     0     0     0     0     0     0
          0     0     0     0     0     0     0     0     0     0     0     0     0     0     0     0     0     0     0     0
          0     0     0     0     0     0     0     0     0     0     0     0     0     0     0     0
  95      0     0     0     0     0     0     0     0     0     0     0     0     0     0     0     0     0     0     0     0
          0     0     0     0     0     0     0     0     0     0     0     0     0     0     0     0     0     0     0     0
          0     0     0     0     0     0     0     0     0     0     0     0     0     0     0     0     0     0     0     0
          0     0     0     0     0     0     0     0     0     0     0     0     0     0     0     0
  96      0     0     0     0     0     0     0     0     0     0     0     0     0     0     0     0     0     0     0     0
          0     0     0     0     0     0     0     0     0     0     0     0     0     0     0     0     0     0     0     0
          0     0     0     0     0     0     0     0     0     0     0     0     0     0     0     0     0     0     0     0
          0     0     0     0     0     0     0     0     0     0     0     0     0     0     0     0
  97      0     0     0     0     0     0     0     0     0     0     0     0     0     0     0     0     0     0     0     0
          0     0     0     0     0     0     0     0     0     0     0     0     0     0     0     0     0     0     0     0
          0     0     0     0     0     0     0     0     0     0     0     0     0     0     0     0     0     0     0     0
          0     0     0     0     0     0     0     0     0     0     0     0     0     0     0     0
  98      0     0     0     0     0     0     0     0     0     0     0     0     0     0     0     0     0     0     0     0
          0     0     0     0     0     0     0     0     0     0     0     0     0     0     0     0     0     0     0     0
          0     0     0     0     0     0     0     0     0     0     0     0     0     0     0     0     0     0     0     0
          0     0     0     0     0     0     0     0     0     0     0     0     0     0     0     0
  99      0     0     0     0     0     0     0     0     0     0     0     0     0     0     0     0     0     0     0     0
          0     0     0     0     0     0     0     0     0     0     0     0     0     0     0     0     0     0     0     0
          0     0     0     0     0     0     0     0     0     0     0     0     0     0     0     0     0     0     0     0
          0     0     0     0     0     0     0     0     0     0     0     0     0     0     0     0
 100      0     0     0     0     0     0     0     0     0     0     0     0     0     0     0     0     0     0     0     0
          0     0     0     0     0     0     0     0     0     0     0     0     0     0     0     0     0     0     0     0
          0     0     0     0     0     0     0     0     0     0     0     0     0     0     0     0     0     0     0     0
          0     0     0     0     0     0     0     0     0     0     0     0     0     0     0     0
 101      0     0     0     0     0     0     0     0     0     0     0     0     0     0     0     0     0     0     0     0
          0     0     0     0     0     0     0     0     0     0     0     0     0     0     0     0     0     0     0     0
          0     0     0     0     0     0     0     0     0     0     0     0     0     0     0     0     0     0     0     0
          0     0     0     0     0     0     0     0     0     0     0     0     0     0     0     0
 102      0     0     0     0     0     0     0     0     0     0     0     0     0     0     0     0     0     0     0     0
          0     0     0     0     0     0     0     0     0     0     0     0     0     0     0     0     0     0     0     0
          0     0     0     0     0     0     0     0     0     0     0     0     0     0     0     0     0     0     0     0
          0     0     0     0     0     0     0     0     0     0     0     0     0     0     0     0
 103      0     0     0     0     0     0     0     0     0     0     0     0     0     0     0     0     0     0     0     0
          0     0     0     0     0     0     0     0     0     0     0     0     0     0     0     0     0     0     0     0
          0     0     0     0     0     0     0     0     0     0     0     0     0     0     0     0     0     0     0     0
          0     0     0     0     0     0     0     0     0     0     0     0     0     0     0     0
 104      0     0     0     0     0     0     0     0     0     0     0     0     0     0     0     0     0     0     0     0
          0     0     0     0     0     0     0     0     0     0     0     0     0     0     0     0     0     0     0     0
          0     0     0     0     0     0     0     0     0     0     0     0     0     0     0     0     0     0     0     0
          0     0     0     0     0     0     0     0     0     0     0     0     0     0     0     0
 105      0     0     0     0     0     0     0     0     0     0     0     0     0     0     0     0     0     0     0     0
          0     0     0     0     0     0     0     0     0     0     0     0     0     0     0     0     0     0     0     0
          0     0     0     0     0     0     0     0     0     0     0     0     0     0     0     0     0     0     0     0
          0     0     0     0     0     0     0     0     0     0     0     0     0     0     0     0
 106      0     0     0     0     0     0     0     0     0     0     0     0     0     0     0     0     0     0     0     0
          0     0     0     0     0     0     0     0     0     0     0     0     0     0     0     0     0     0     0     0
          0     0     0     0     0     0     0     0     0     0     0     0     0     0     0     0     0     0     0     0
          0     0     0     0     0     0     0     0     0     0     0     0     0     0     0     0
 107      0     0     0     0     0     0     0     0     0     0     0     0     0     0     0     0     0     0     0     0
          0     0     0     0     0     0     0     0     0     0     0     0     0     0     0     0     0     0     0     0
          0     0     0     0     0     0     0     0     0     0     0     0     0     0     0     0     0     0     0     0
          0     0     0     0     0     0     0     0     0     0     0     0     0     0     0     0
 108      0     0     0     0     0     0     0     0     0     0     0     0     0     0     0     0     0     0     0     0
          0     0     0     0     0     0     0     0     0     0     0     0     0     0     0     0     0     0     0     0
          0     0     0     0     0     0     0     0     0     0     0     0     0     0     0     0     0     0     0     0
          0     0     0     0     0     0     0     0     0     0     0     0     0     0     0     0
 109      0     0     0     0     0     0     0     0     0     0     0     0     0     0     0     0     0     0     0     0
          0     0     0     0     0     0     0     0     0     0     0     0     0     0     0     0     0     0     0     0
          0     0     0     0     0     0     0     0     0     0     0     0     0     0     0     0     0     0     0     0
          0     0     0     0     0     0     0     0     0     0     0     0     0     0     0     0
 110      0     0     0     0     0     0     0     0     0     0     0     0     0     0     0     0     0     0     0     0
          0     0     0     0     0     0     0     0     0     0     0     0     0     0     0     0     0     0     0     0
          0     0     0     0     0     0     0     0     0     0     0     0     0     0     0     0     0     0     0     0
          0     0     0     0     0     0     0     0     0     0     0     0     0     0     0     0
 111      0     0     0     0     0     0     0     0     0     0     0     0     0     0     0     0     0     0     0     0
          0     0     0     0     0     0     0     0     0     0     0     0     0     0     0     0     0     0     0     0
          0     0     0     0     0     0     0     0     0     0     0     0     0     0     0     0     0     0     0     0
          0     0     0     0     0     0     0     0     0     0     0     0     0     0     0     0
 112      0     0     0     0     0     0     0     0     0     0     0     0     0     0     0     0     0     0     0     0
          0     0     0     0     0     0     0     0     0     0     0     0     0     0     0     0     0     0     0     0
          0     0     0     0     0     0     0     0     0     0     0     0     0     0     0     0     0     0     0     0
          0     0     0     0     0     0     0     0     0     0     0     0     0     0     0     0
 113      0     0     0     0     0     0     0     0     0     0     0     0     0     0     0     0     0     0     0     0
          0     0     0     0     0     0     0     0     0     0     0     0     0     0     0     0     0     0     0     0
          0     0     0     0     0     0     0     0     0     0     0     0     0     0     0     0     0     0     0     0
          0     0     0     0     0     0     0     0     0     0     0     0     0     0     0     0
 114      0     0     0     0     0     0     0     0     0     0     0     0     0     0     0     0     0     0     0     0
          0     0     0     0     0     0     0     0     0     0     0     0     0     0     0     0     0     0     0     0
          0     0     0     0     0     0     0     0     0     0     0     0     0     0     0     0     0     0     0     0
          0     0     0     0     0     0     0     0     0     0     0     0     0     0     0     0
 115      0     0     0     0     0     0     0     0     0     0     0     0     0     0     0     0     0     0     0     0
          0     0     0     0     0     0     0     0     0     0     0     0     0     0     0     0     0     0     0     0
          0     0     0     0     0     0     0     0     0     0     0     0     0     0     0     0     0     0     0     0
          0     0     0     0     0     0     0     0     0     0     0     0     0     0     0     0
 116      0     0     0     0     0     0     0     0     0     0     0     0     0     0     0     0     0     0     0     0
          0     0     0     0     0     0     0     0     0     0     0     0     0     0     0     0     0     0     0     0
          0     0     0     0     0     0     0     0     0     0     0     0     0     0     0     0     0     0     0     0
          0     0     0     0     0     0     0     0     0     0     0     0     0     0     0     0
 117      0     0     0     0     0     0     0     0     0     0     0     0     0     0     0     0     0     0     0     0
          0     0     0     0     0     0     0     0     0     0     0     0     0     0     0     0     0     0     0     0
          0     0     0     0     0     0     0     0     0     0     0     0     0     0     0     0     0     0     0     0
          0     0     0     0     0     0     0     0     0     0     0     0     0     0     0     0
 118      0     0     0     0     0     0     0     0     0     0     0     0     0     0     0     0     0     0     0     0
          0     0     0     0     0     0     0     0     0     0     0     0     0     0     0     0     0     0     0     0
          0     0     0     0     0     0     0     0     0     0     0     0     0     0     0     0     0     0     0     0
          0     0     0     0     0     0     0     0     0     0     0     0     0     0     0     0
 119      0     0     0     0     0     0     0     0     0     0     0     0     0     0     0     0     0     0     0     0
          0     0     0     0     0     0     0     0     0     0     0     0     0     0     0     0     0     0     0     0
          0     0     0     0     0     0     0     0     0     0     0     0     0     0     0     0     0     0     0     0
          0     0     0     0     0     0     0     0     0     0     0     0     0     0     0     0
 120      0     0     0     0     0     0     0     0     0     0     0     0     0     0     0     0     0     0     0     0
          0     0     0     0     0     0     0     0     0     0     0     0     0     0     0     0     0     0     0     0
          0     0     0     0     0     0     0     0     0     0     0     0     0     0     0     0     0     0     0     0
          0     0     0     0     0     0     0     0     0     0     0     0     0     0     0     0
 121      0     0     0     0     0     0     0     0     0     0     0     0     0     0     0     0     0     0     0     0
          0     0     0     0     0     0     0     0     0     0     0     0     0     0     0     0     0     0     0     0
          0     0     0     0     0     0     0     0     0     0     0     0     0     0     0     0     0     0     0     0
          0     0     0     0     0     0     0     0     0     0     0     0     0     0     0     0
 122      0     0     0     0     0     0     0     0     0     0     0     0     0     0     0     0     0     0     0     0
          0     0     0     0     0     0     0     0     0     0     0     0     0     0     0     0     0     0     0     0
          0     0     0     0     0     0     0     0     0     0     0     0     0     0     0     0     0     0     0     0
          0     0     0     0     0     0     0     0     0     0     0     0     0     0     0     0
 123      0     0     0     0     0     0     0     0     0     0     0     0     0     0     0     0     0     0     0     0
          0     0     0     0     0     0     0     0     0     0     0     0     0     0     0     0     0     0     0     0
          0     0     0     0     0     0     0     0     0     0     0     0     0     0     0     0     0     0     0     0
          0     0     0     0     0     0     0     0     0     0     0     0     0     0     0     0
 124      0     0     0     0     0     0     0     0     0     0     0     0     0     0     0     0     0     0     0     0
          0     0     0     0     0     0     0     0     0     0     0     0     0     0     0     0     0     0     0     0
          0     0     0     0     0     0     0     0     0     0     0     0     0     0     0     0     0     0     0     0
          0     0     0     0     0     0     0     0     0     0     0     0     0     0     0     0
 125      0     0     0     0     0     0     0     0     0     0     0     0     0     0     0     0     0     0     0     0
          0     0     0     0     0     0     0     0     0     0     0     0     0     0     0     0     0     0     0     0
          0     0     0     0     0     0     0     0     0     0     0     0     0     0     0     0     0     0     0     0
          0     0     0     0     0     0     0     0     0     0     0     0     0     0     0     0
 126      0     0     0     0     0     0     0     0     0     0     0     0     0     0     0     0     0     0     0     0
          0     0     0     0     0     0     0     0     0     0     0     0     0     0     0     0     0     0     0     0
          0     0     0     0     0     0     0     0     0     0     0     0     0     0     0     0     0     0     0     0
          0     0     0     0     0     0     0     0     0     0     0     0     0     0     0     0
 127      0     0     0     0     0     0     0     0     0     0     0     0     0     0     0     0     0     0     0     0
          0     0     0     0     0     0     0     0     0     0     0     0     0     0     0     0     0     0     0     0
          0     0     0     0     0     0     0     0     0     0     0     0     0     0     0     0     0     0     0     0
          0     0     0     0     0     0     0     0     0     0     0     0     0     0     0     0
 128      0     0     0     0     0     0     0     0     0     0     0     0     0     0     0     0     0     0     0     0
          0     0     0     0     0     0     0     0     0     0     0     0     0     0     0     0     0     0     0     0
          0     0     0     0     0     0     0     0     0     0     0     0     0     0     0     0     0     0     0     0
          0     0     0     0     0     0     0     0     0     0     0     0     0     0     0     0
 129      0     0     0     0     0     0     0     0     0     0     0     0     0     0     0     0     0     0     0     0
          0     0     0     0     0     0     0     0     0     0     0     0     0     0     0     0     0     0     0     0
          0     0     0     0     0     0     0     0     0     0     0     0     0     0     0     0     0     0     0     0
          0     0     0     0     0     0     0     0     0     0     0     0     0     0     0     0
 130      0     0     0     0     0     0     0     0     0     0     0     0     0     0     0     0     0     0     0     0
          0     0     0     0     0     0     0     0     0     0     0     0     0     0     0     0     0     0     0     0
          0     0     0     0     0     0     0     0     0     0     0     0     0     0     0     0     0     0     0     0
          0     0     0     0     0     0     0     0     0     0     0     0     0     0     0     0
 131      0     0     0     0     0     0     0     0     0     0     0     0     0     0     0     0     0     0     0     0
          0     0     0     0     0     0     0     0     0     0     0     0     0     0     0     0     0     0     0     0
          0     0     0     0     0     0     0     0     0     0     0     0     0     0     0     0     0     0     0     0
          0     0     0     0     0     0     0     0     0     0     0     0     0     0     0     0



             ZONE ARRAY: sy02_Z1   
 READING ON UNIT 5015 WITH FORMAT: (FREE)              

          1     2     3     4     5     6     7     8     9    10    11    12    13    14    15    16    17    18    19    20
         21    22    23    24    25    26    27    28    29    30    31    32    33    34    35    36    37    38    39    40
         41    42    43    44    45    46    47    48    49    50    51    52    53    54    55    56    57    58    59    60
         61    62    63    64    65    66    67    68    69    70    71    72    73    74    75    76
 ............................................................................................................................
   1      0     0     0     0     0     0     0     0     0     0     0     0     0     0     0     0     0     0     0     0
          0     0     0     0     0     0     0     0     0     0     0     0     0     0     0     0     0     0     0     0
          0     0     0     0     0     0     0     0     0     0     0     0     0     0     0     0     0     0     0     0
          0     0     0     0     0     0     0     0     0     0     0     0     0     0     0     0
   2      0     0     0     0     0     0     0     0     0     0     0     0     0     0     0     0     0     0     0     0
          0     0     0     0     0     0     0     0     0     0     0     0     0     0     0     0     0     0     0     0
          0     0     0     0     0     0     0     0     0     0     0     0     0     0     0     0     0     0     0     0
          0     0     0     0     0     0     0     0     0     0     0     0     0     0     0     0
   3      0     0     0     0     0     0     0     0     0     0     0     0     0     0     0     0     0     0     0     0
          0     0     0     0     0     0     0     0     0     0     0     0     0     0     0     0     0     0     0     0
          0     0     0     0     0     0     0     0     0     0     0     0     0     0     0     0     0     0     0     0
          0     0     0     0     0     0     0     0     0     0     0     0     0     0     0     0
   4      0     0     0     0     0     0     0     0     0     0     0     0     0     0     0     0     0     0     0     0
          0     0     0     0     0     0     0     0     0     0     0     0     0     0     0     0     0     0     0     0
          0     0     0     0     0     0     0     0     0     0     0     0     0     0     0     0     0     0     0     0
          0     0     0     0     0     0     0     0     0     0     0     0     0     0     0     0
   5      0     0     0     0     0     0     0     0     0     0     0     0     0     0     0     0     0     0     0     0
          0     0     0     0     0     0     0     0     0     0     0     0     0     0     0     0     0     0     0     0
          0     0     0     0     0     0     0     0     0     0     0     0     0     0     0     0     0     0     0     0
          0     0     0     0     0     0     0     0     0     0     0     0     0     0     0     0
   6      0     0     0     0     0     0     0     0     0     0     0     0     0     0     0     0     0     0     0     0
          0     0     0     0     0     0     0     0     0     0     0     0     0     0     0     0     0     0     0     0
          0     0     0     0     0     0     0     0     0     0     0     0     0     0     0     0     0     0     0     0
          0     0     0     0     0     0     0     0     0     0     0     0     0     0     0     0
   7      0     0     0     0     0     0     0     0     0     0     0     0     0     0     0     0     0     0     0     0
          0     0     0     0     0     0     0     0     0     0     0     0     0     0     0     0     0     0     0     0
          0     0     0     0     0     0     0     0     0     0     0     0     0     0     0     0     0     0     0     0
          0     0     0     0     0     0     0     0     0     0     0     0     0     0     0     0
   8      0     0     0     0     0     0     0     0     0     0     0     0     0     0     0     0     0     0     0     0
          0     0     0     0     0     0     0     0     0     0     0     0     0     0     0     0     0     0     0     0
          0     0     0     0     0     0     0     0     0     0     0     0     0     0     0     0     0     0     0     0
          0     0     0     0     0     0     0     0     0     0     0     0     0     0     0     0
   9      0     0     0     0     0     0     0     0     0     0     0     0     0     0     0     0     0     0     0     0
          0     0     0     0     0     0     0     0     0     0     0     0     0     0     0     0     0     0     0     0
          0     0     0     0     0     0     0     0     0     0     0     0     0     0     0     0     0     0     0     0
          0     0     0     0     0     0     0     0     0     0     0     0     0     0     0     0
  10      0     0     0     0     0     0     0     0     0     0     0     0     0     0     0     0     0     0     0     0
          0     0     0     0     0     0     0     0     0     0     0     0     0     0     0     0     0     0     0     0
          0     0     0     0     0     0     0     0     0     0     0     0     0     0     0     0     0     0     0     0
          0     0     0     0     0     0     0     0     0     0     0     0     0     0     0     0
  11      0     0     0     0     0     0     0     0     0     0     0     0     0     0     0     0     0     0     0     0
          0     0     0     0     0     0     0     0     0     0     0     0     0     0     0     0     0     0     0     0
          0     0     0     0     0     0     0     0     0     0     0     0     0     0     0     0     0     0     0     0
          0     0     0     0     0     0     0     0     0     0     0     0     0     0     0     0
  12      0     0     0     0     0     0     0     0     0     0     0     0     0     0     0     0     0     0     0     0
          0     0     0     0     0     0     0     0     0     0     0     0     0     0     0     0     0     0     0     0
          0     0     0     0     0     0     0     0     0     0     0     0     0     0     0     0     0     0     0     0
          0     0     0     0     0     0     0     0     0     0     0     0     0     0     0     0
  13      0     0     0     0     0     0     0     0     0     0     0     0     0     0     0     0     0     0     0     0
          0     0     0     0     0     0     0     0     0     0     0     0     0     0     0     0     0     0     0     0
          0     0     0     0     0     0     0     0     0     0     0     0     0     0     0     0     0     0     0     0
          0     0     0     0     0     0     0     0     0     0     0     0     0     0     0     0
  14      0     0     0     0     0     0     0     0     0     0     0     0     0     0     0     0     0     0     0     0
          0     0     0     0     0     0     0     0     0     0     0     0     0     0     0     0     0     0     0     0
          0     0     0     0     0     0     0     0     0     0     0     0     0     0     0     0     0     0     0     0
          0     0     0     0     0     0     0     0     0     0     0     0     0     0     0     0
  15      0     0     0     0     0     0     0     0     0     0     0     0     0     0     0     0     0     0     0     0
          0     0     0     0     0     0     0     0     0     0     0     0     0     0     0     0     0     0     0     0
          0     0     0     0     0     0     0     0     0     0     0     0     0     0     0     0     0     0     0     0
          0     0     0     0     0     0     0     0     0     0     0     0     0     0     0     0
  16      0     0     0     0     0     0     0     0     0     0     0     0     0     0     0     0     0     0     0     0
          0     0     0     0     0     0     0     0     0     0     0     0     0     0     0     0     0     0     0     0
          0     0     0     0     0     0     0     0     0     0     0     0     0     0     0     0     0     0     0     0
          0     0     0     0     0     0     0     0     0     0     0     0     0     0     0     0
  17      0     0     0     0     0     0     0     0     0     0     0     0     0     0     0     0     0     0     0     0
          0     0     0     0     0     0     0     0     0     0     0     0     0     0     0     0     0     0     0     0
          0     0     0     0     0     0     0     0     0     0     0     0     0     0     0     0     0     0     0     0
          0     0     0     0     0     0     0     0     0     0     0     0     0     0     0     0
  18      0     0     0     0     0     0     0     0     0     0     0     0     0     0     0     0     0     0     0     0
          0     0     0     0     0     0     0     0     0     0     0     0     0     0     0     0     0     0     0     0
          0     0     0     0     0     0     0     0     0     0     0     0     0     0     0     0     0     0     0     0
          0     0     0     0     0     0     0     0     0     0     0     0     0     0     0     0
  19      0     0     0     0     0     0     0     0     0     0     0     0     0     0     0     0     0     0     0     0
          0     0     0     0     0     0     0     0     0     0     0     0     0     0     0     0     0     0     0     0
          0     0     0     0     0     0     0     0     0     0     0     0     0     0     0     0     0     0     0     0
          0     0     0     0     0     0     0     0     0     0     0     0     0     0     0     0
  20      0     0     0     0     0     0     0     0     0     0     0     0     0     0     0     0     0     0     0     0
          0     0     0     0     0     0     0     0     0     0     0     0     0     0     0     0     0     0     0     0
          0     0     0     0     0     0     0     0     0     0     0     0     0     0     0     0     0     0     0     0
          0     0     0     0     0     0     0     0     0     0     0     0     0     0     0     0
  21      0     0     0     0     0     0     0     0     0     0     0     0     0     0     0     0     0     0     0     0
          0     0     0     0     0     0     0     0     0     0     0     0     0     0     0     0     0     0     0     0
          0     0     0     0     0     0     0     0     0     0     0     0     0     0     0     0     0     0     0     0
          0     0     0     0     0     0     0     0     0     0     0     0     0     0     0     0
  22      0     0     0     0     0     0     0     0     0     0     0     0     0     0     0     0     0     0     0     0
          0     0     0     0     0     0     0     0     0     0     0     0     0     0     0     0     0     0     0     0
          0     0     0     0     0     0     0     0     0     0     0     0     0     0     0     0     0     0     0     0
          0     0     0     0     0     0     0     0     0     0     0     0     0     0     0     0
  23      0     0     0     0     0     0     0     0     0     0     0     0     0     0     0     0     0     0     0     0
          0     0     0     0     0     0     0     0     0     0     0     0     0     0     0     0     0     0     0     0
          0     0     0     0     0     0     0     0     0     0     0     0     0     0     0     0     0     0     0     0
          0     0     0     0     0     0     0     0     0     0     0     0     0     0     0     0
  24      0     0     0     0     0     0     0     0     0     0     0     0     0     0     0     0     0     0     0     0
          0     0     0     0     0     0     0     0     0     0     0     0     0     0     0     0     0     0     0     0
          0     0     0     0     0     0     0     0     0     0     0     0     0     0     0     0     0     0     0     0
          0     0     0     0     0     0     0     0     0     0     0     0     0     0     0     0
  25      0     0     0     0     0     0     0     0     0     0     0     0     0     0     0     0     0     0     0     0
          0     0     0     0     0     0     0     0     0     0     0     0     0     0     0     0     0     0     0     0
          0     0     0     0     0     0     0     0     0     0     0     0     0     0     0     0     0     0     0     0
          0     0     0     0     0     0     0     0     0     0     0     0     0     0     0     0
  26      0     0     0     0     0     0     0     0     0     0     0     0     0     0     0     0     0     0     0     0
          0     0     0     0     0     0     0     0     0     0     0     0     0     0     0     0     0     0     0     0
          0     0     0     0     0     0     0     0     0     0     0     0     0     0     0     0     0     0     0     0
          0     0     0     0     0     0     0     0     0     0     0     0     0     0     0     0
  27      0     0     0     0     0     0     0     0     0     0     0     0     0     0     0     0     0     0     0     0
          0     0     0     0     0     0     0     0     0     0     0     0     0     0     0     0     0     0     0     0
          0     0     0     0     0     0     0     0     0     0     0     0     0     0     0     0     0     0     0     0
          0     0     0     0     0     0     0     0     0     0     0     0     0     0     0     0
  28      0     0     0     0     0     0     0     0     0     0     0     0     0     0     0     0     0     0     0     0
          0     0     0     0     0     0     0     0     0     0     0     0     0     0     0     0     0     0     0     0
          0     0     0     0     0     0     0     0     0     0     0     0     0     0     0     0     0     0     0     0
          0     0     0     0     0     0     0     0     0     0     0     0     0     0     0     0
  29      0     0     0     0     0     0     0     0     0     0     0     0     0     0     0     0     0     0     0     0
          0     0     0     0     0     0     0     0     0     0     0     0     0     0     0     0     0     0     0     0
          0     0     0     0     0     0     0     0     0     0     0     0     0     0     0     0     0     0     0     0
          0     0     0     0     0     0     0     0     0     0     0     0     0     0     0     0
  30      0     0     0     0     0     0     0     0     0     0     0     0     0     0     0     0     0     0     0     0
          0     0     0     0     0     0     0     0     0     0     0     0     0     0     0     0     0     0     0     0
          0     0     0     0     0     0     0     0     0     0     0     0     0     0     0     0     0     0     0     0
          0     0     0     0     0     0     0     0     0     0     0     0     0     0     0     0
  31      0     0     0     0     0     0     0     0     0     0     0     0     0     0     0     0     0     0     0     0
          0     0     0     0     0     0     0     0     0     0     0     0     0     0     0     0     0     0     0     0
          0     0     0     0     0     0     0     0     0     0     0     0     0     0     0     0     0     0     0     0
          0     0     0     0     0     0     0     0     0     0     0     0     0     0     0     0
  32      0     0     0     0     0     0     0     0     0     0     0     0     0     0     0     0     0     0     0     0
          0     0     0     0     0     0     0     0     0     0     0     0     0     0     0     0     0     0     0     0
          0     0     0     0     0     0     0     0     0     0     0     0     0     0     0     0     0     0     0     0
          0     0     0     0     0     0     0     0     0     0     0     0     0     0     0     0
  33      0     0     0     0     0     0     0     0     0     0     0     0     0     0     0     0     0     0     0     0
          0     0     0     0     0     0     0     0     0     0     0     0     0     0     0     0     0     0     0     0
          0     0     0     0     0     0     0     0     0     0     0     0     0     0     0     0     0     0     0     0
          0     0     0     0     0     0     0     0     0     0     0     0     0     0     0     0
  34      0     0     0     0     0     0     0     0     0     0     0     0     0     0     0     0     0     0     0     0
          0     0     0     0     0     0     0     0     0     0     0     0     0     0     0     0     0     0     0     0
          0     0     0     0     0     0     0     0     0     0     0     0     0     0     0     0     0     0     0     0
          0     0     0     0     0     0     0     0     0     0     0     0     0     0     0     0
  35      0     0     0     0     0     0     0     0     0     0     0     0     0     0     0     0     0     0     0     0
          0     0     0     0     0     0     0     0     0     0     0     0     0     0     0     0     0     0     0     0
          0     0     0     0     0     0     0     0     0     0     0     0     0     0     0     0     0     0     0     0
          0     0     0     0     0     0     0     0     0     0     0     0     0     0     0     0
  36      0     0     0     0     0     0     0     0     0     0     0     0     0     0     0     0     0     0     0     0
          0     0     0     0     0     0     0     0     0     0     0     0     0     0     0     0     0     0     0     0
          0     0     0     0     0     0     0     0     0     0     0     0     0     0     0     0     0     0     0     0
          0     0     0     0     0     0     0     0     0     0     0     0     0     0     0     0
  37      0     0     0     0     0     0     0     0     0     0     0     0     0     0     0     0     0     0     0     0
          0     0     0     0     0     0     0     0     0     0     0     0     0     0     0     0     0     0     0     0
          0     0     0     0     0     0     0     0     0     0     0     0     0     0     0     0     0     0     0     0
          0     0     0     0     0     0     0     0     0     0     0     0     0     0     0     0
  38      0     0     0     0     0     0     0     0     0     0     0     0     0     0     0     0     0     0     0     0
          0     0     0     0     0     0     0     0     0     0     0     0     0     0     0     0     0     0     0     0
          0     0     0     0     0     0     0     0     0     0     0     0     0     0     0     0     0     0     0     0
          0     0     0     0     0     0     0     0     0     0     0     0     0     0     0     0
  39      0     0     0     0     0     0     0     0     0     0     0     0     0     0     0     0     0     0     0     0
          0     0     0     0     0     0     0     0     0     0     0     0     0     0     0     0     0     0     0     0
          0     0     0     0     0     0     0     0     0     0     0     0     0     0     0     0     0     0     0     0
          0     0     0     0     0     0     0     0     0     0     0     0     0     0     0     0
  40      0     0     0     0     0     0     0     0     0     0     0     0     0     0     0     0     0     0     0     0
          0     0     0     0     0     0     0     0     0     0     0     0     0     0     0     0     0     0     0     0
          0     0     0     0     0     0     0     0     0     0     0     0     0     0     0     0     0     0     0     0
          0     0     0     0     0     0     0     0     0     0     0     0     0     0     0     0
  41      0     0     0     0     0     0     0     0     0     0     0     0     0     0     0     0     0     0     0     0
          0     0     0     0     0     0     0     0     0     0     0     0     0     0     0     0     0     0     0     0
          0     0     0     0     0     0     0     0     0     0     0     0     0     0     0     0     0     0     0     0
          0     0     0     0     0     0     0     0     0     0     0     0     0     0     0     0
  42      0     0     0     0     0     0     0     0     0     0     0     0     0     0     0     0     0     0     0     0
          0     0     0     0     0     0     0     0     0     0     0     0     0     0     0     0     0     0     0     0
          0     0     0     0     0     0     0     0     0     0     0     0     0     0     0     0     0     0     0     0
          0     0     0     0     0     0     0     0     0     0     0     0     0     0     0     0
  43      0     0     0     0     0     0     0     0     0     0     0     0     0     0     0     0     0     0     0     0
          0     0     0     0     0     0     0     0     0     0     0     0     0     0     0     0     0     0     0     0
          0     0     0     0     0     0     0     0     0     0     0     0     0     0     0     0     0     0     0     0
          0     0     0     0     0     0     0     0     0     0     0     0     0     0     0     0
  44      0     0     0     0     0     0     0     0     0     0     0     0     0     0     0     0     0     0     0     0
          0     0     0     0     0     0     0     0     0     0     0     0     0     0     0     0     0     0     0     0
          0     0     0     0     0     0     0     0     0     0     0     0     0     0     0     0     0     0     0     0
          0     0     0     0     0     0     0     0     0     0     0     0     0     0     0     0
  45      0     0     0     0     0     0     0     0     0     0     0     0     0     0     0     0     0     0     0     0
          0     0     0     0     0     0     0     0     0     0     0     0     0     0     0     0     0     0     0     0
          0     0     0     0     0     0     0     0     0     0     0     0     0     0     0     0     0     0     0     0
          0     0     0     0     0     0     0     0     0     0     0     0     0     0     0     0
  46      0     0     0     0     0     0     0     0     0     0     0     0     0     0     0     0     0     0     0     0
          0     0     0     0     0     0     0     0     0     0     0     0     0     0     0     0     0     0     0     0
          0     0     0     0     0     0     0     0     0     0     0     0     0     0     0     0     0     0     0     0
          0     0     0     0     0     0     0     0     0     0     0     0     0     0     0     0
  47      0     0     0     0     0     0     0     0     0     0     0     0     0     0     0     0     0     0     0     0
          0     0     0     0     0     0     0     0     0     0     0     0     0     0     0     0     0     0     0     0
          0     0     0     0     0     0     0     0     0     0     0     0     0     0     0     0     0     0     0     0
          0     0     0     0     0     0     0     0     0     0     0     0     0     0     0     0
  48      0     0     0     0     0     0     0     0     0     0     0     0     0     0     0     0     0     0     0     0
          0     0     0     0     0     0     0     0     0     0     0     0     0     0     0     0     0     0     0     0
          0     0     0     0     0     0     0     0     0     0     0     0     0     0     0     0     0     0     0     0
          0     0     0     0     0     0     0     0     0     0     0     0     0     0     0     0
  49      0     0     0     0     0     0     0     0     0     0     0     0     0     0     0     0     0     0     0     0
          0     0     0     0     0     0     0     0     0     0     0     0     0     0     0     0     0     0     0     0
          0     0     0     0     0     0     0     0     0     0     0     0     0     0     0     0     0     0     0     0
          0     0     0     0     0     0     0     0     0     0     0     0     0     0     0     0
  50      0     0     0     0     0     0     0     0     0     0     0     0     0     0     0     0     0     0     0     0
          0     0     0     0     0     0     0     0     0     0     0     0     0     0     0     0     0     0     0     0
          0     0     0     0     0     0     0     0     0     0     0     0     0     0     0     0     0     0     0     0
          0     0     0     0     0     0     0     0     0     0     0     0     0     0     0     0
  51      0     0     0     0     0     0     0     0     0     0     0     0     0     0     0     0     0     0     0     0
          0     0     0     0     0     0     0     0     0     0     0     0     0     0     0     0     0     0     0     0
          0     0     0     0     0     0     0     0     0     0     0     0     0     0     0     0     0     0     0     0
          0     0     0     0     0     0     0     0     0     0     0     0     0     0     0     0
  52      0     0     0     0     0     0     0     0     0     0     0     0     0     0     0     0     0     0     0     0
          0     0     0     0     0     0     0     0     0     0     0     0     0     0     0     0     0     0     0     0
          0     0     0     0     0     0     0     0     0     0     0     0     0     0     0     0     0     0     0     0
          0     0     0     0     0     0     0     0     0     0     0     0     0     0     0     0
  53      0     0     0     0     0     0     0     0     0     0     0     0     0     0     0     0     0     0     0     0
          0     0     0     0     0     0     0     0     0     0     0     0     0     0     0     0     0     0     0     0
          0     0     0     0     0     0     0     0     0     0     0     0     0     0     0     0     0     0     0     0
          0     0     0     0     0     0     0     0     0     0     0     0     0     0     0     0
  54      0     0     0     0     0     0     0     0     0     0     0     0     0     0     0     0     0     0     0     0
          0     0     0     0     0     0     0     0     0     0     0     0     0     0     0     0     0     0     0     0
          0     0     0     0     0     0     0     0     0     0     0     0     0     0     0     0     0     0     0     0
          0     0     0     0     0     0     0     0     0     0     0     0     0     0     0     0
  55      0     0     0     0     0     0     0     0     0     0     0     0     0     0     0     0     0     0     0     0
          0     0     0     0     0     0     0     0     0     0     0     0     0     0     0     0     0     0     0     0
          0     0     0     0     0     0     0     0     0     0     0     0     0     0     0     0     0     0     0     0
          0     0     0     0     0     0     0     0     0     0     0     0     0     0     0     0
  56      0     0     0     0     0     0     0     0     0     0     0     0     0     0     0     0     0     0     0     0
          0     0     0     0     0     0     0     0     0     0     0     0     0     0     0     0     0     0     0     0
          0     0     0     0     0     0     0     0     0     0     0     0     0     0     0     0     0     0     0     0
          0     0     0     0     0     0     0     0     0     0     0     0     0     0     0     0
  57      0     0     0     0     0     0     0     0     0     0     0     0     0     0     0     0     0     0     0     0
          0     0     0     0     0     0     0     0     0     0     0     0     0     0     0     0     0     0     0     0
          0     0     0     0     0     0     0     0     0     0     0     0     0     0     0     0     0     0     0     0
          0     0     0     0     0     0     0     0     0     0     0     0     0     0     0     0
  58      0     0     0     0     0     0     0     0     0     0     0     0     0     0     0     0     0     0     0     0
          0     0     0     0     0     0     0     0     0     0     0     0     0     0     0     0     0     0     0     0
          0     0     0     0     0     0     0     0     0     0     0     0     0     0     0     0     0     0     0     0
          0     0     0     0     0     0     0     0     0     0     0     0     0     0     0     0
  59      0     0     0     0     0     0     0     0     0     0     0     0     0     0     0     0     0     0     0     0
          0     0     0     0     0     0     0     0     0     0     0     0     0     0     0     0     0     0     0     0
          0     0     0     0     0     0     0     0     0     0     0     0     0     0     0     0     0     0     0     0
          0     0     0     0     0     0     0     0     0     0     0     0     0     0     0     0
  60      0     0     0     0     0     0     0     0     0     0     0     0     0     0     0     0     0     0     0     0
          0     0     0     0     0     0     0     0     0     0     0     0     0     0     0     0     0     0     0     0
          0     0     0     0     0     0     0     0     0     0     0     0     0     0     0     0     0     0     0     0
          0     0     0     0     0     0     0     0     0     0     0     0     0     0     0     0
  61      0     0     0     0     0     0     0     0     0     0     0     0     0     0     0     0     0     0     0     0
          0     0     0     0     0     0     0     0     0     0     0     0     0     0     0     0     0     0     0     0
          0     0     0     0     0     0     0     0     0     0     0     0     0     0     0     0     0     0     0     0
          0     0     0     0     0     0     0     0     0     0     0     0     0     0     0     0
  62      0     0     0     0     0     0     0     0     0     0     0     0     0     0     0     0     0     0     0     0
          0     0     0     0     0     0     0     0     0     0     0     0     0     0     0     0     0     0     0     0
          0     0     0     0     0     0     0     0     0     0     0     0     0     0     0     0     0     0     0     0
          0     0     0     0     0     0     0     0     0     0     0     0     0     0     0     0
  63      0     0     0     0     0     0     0     0     0     0     0     0     0     0     0     0     0     0     0     0
          0     0     0     0     0     0     0     0     0     0     0     0     0     0     0     0     0     0     0     0
          0     0     0     0     0     0     0     0     0     0     0     0     0     0     0     0     0     0     0     0
          0     0     0     0     0     0     0     0     0     0     0     0     0     0     0     0
  64      0     0     0     0     0     0     0     0     0     0     0     0     0     0     0     0     0     0     0     0
          0     0     0     0     0     0     0     0     0     0     0     0     0     0     0     0     0     0     0     0
          0     0     0     0     0     0     0     0     0     0     0     0     0     0     0     0     0     0     0     0
          0     0     0     0     0     0     0     0     0     0     0     0     0     0     0     0
  65      0     0     0     0     0     0     0     0     0     0     0     0     0     0     0     0     0     0     0     0
          0     0     0     0     0     0     0     0     0     0     0     0     0     0     0     0     0     0     0     0
          0     0     0     0     0     0     0     0     0     0     0     0     0     0     0     0     0     0     0     0
          0     0     0     0     0     0     0     0     0     0     0     0     0     0     0     0
  66      0     0     0     0     0     0     0     0     0     0     0     0     0     0     0     0     0     0     0     0
          0     0     0     0     0     0     0     0     0     0     0     0     0     0     0     0     0     0     0     0
          0     0     0     0     0     0     0     0     0     0     0     0     0     0     0     0     0     0     0     0
          0     0     0     0     0     0     0     0     0     0     0     0     0     0     0     0
  67      0     0     0     0     0     0     0     0     0     0     0     0     0     0     0     0     0     0     0     0
          0     0     0     0     0     0     0     0     0     0     0     0     0     0     0     0     0     0     0     0
          0     0     0     0     0     0     0     0     0     0     0     0     0     0     0     0     0     0     0     0
          0     0     0     0     0     0     0     0     0     0     0     0     0     0     0     0
  68      0     0     0     0     0     0     0     0     0     0     0     0     0     0     0     0     0     0     0     0
          0     0     0     0     0     0     0     0     0     0     0     0     0     0     0     0     0     0     0     0
          0     0     0     0     0     0     0     0     0     0     0     0     0     0     0     0     0     0     0     0
          0     0     0     0     0     0     0     0     0     0     0     0     0     0     0     0
  69      0     0     0     0     0     0     0     0     0     0     0     0     0     0     0     0     0     0     0     0
          0     0     0     0     0     0     0     0     0     0     0     0     0     0     0     0     0     0     0     0
          0     0     0     0     0     0     0     0     0     0     0     0     0     0     0     0     0     0     0     0
          0     0     0     0     0     0     0     0     0     0     0     0     0     0     0     0
  70      0     0     0     0     0     0     0     0     0     0     0     0     0     0     0     0     0     0     0     0
          0     0     0     0     0     0     0     0     0     0     0     0     0     0     0     0     0     0     0     0
          0     0     0     0     0     0     0     0     0     0     0     0     0     0     0     0     0     0     0     0
          0     0     0     0     0     0     0     0     0     0     0     0     0     0     0     0
  71      0     0     0     0     0     0     0     0     0     0     0     0     0     0     0     0     0     0     0     0
          0     0     0     0     0     0     0     0     0     0     0     0     0     0     0     0     0     0     0     0
          0     0     0     0     0     0     0     0     0     0     0     0     0     0     0     0     0     0     0     0
          0     0     0     0     0     0     0     0     0     0     0     0     0     0     0     0
  72      1     1     1     1     1     1     1     1     1     1     1     1     1     1     1     1     1     1     0     1
          1     1     1     1     1     1     1     1     1     1     1     1     1     1     1     1     1     1     1     1
          1     1     1     1     1     1     1     1     1     1     1     1     1     1     1     1     1     1     1     1
          1     1     1     1     1     1     1     1     1     1     1     1     1     1     1     1
  73      1     1     1     1     1     1     1     1     1     1     1     1     1     1     1     1     1     1     0     1
          1     1     1     1     1     1     1     1     1     1     1     1     1     1     1     1     1     1     1     1
          1     1     1     1     1     1     1     1     1     1     1     1     1     1     1     1     1     1     1     1
          1     1     1     1     1     1     1     1     1     1     1     1     1     1     1     1
  74      1     1     1     1     1     1     1     1     1     1     1     1     1     1     1     1     1     0     0     1
          1     1     1     1     1     1     1     1     1     1     1     1     1     1     1     1     1     1     1     1
          1     1     1     1     1     1     1     1     1     1     1     1     1     1     1     1     1     1     1     1
          1     1     1     1     1     1     1     1     1     1     1     1     1     1     1     1
  75      1     1     1     1     1     1     1     1     1     1     1     1     1     1     1     1     1     0     1     1
          1     1     1     1     1     1     1     1     1     1     1     1     1     1     1     1     1     1     1     1
          1     1     1     1     1     1     1     1     1     1     1     1     1     1     1     1     1     1     1     1
          1     1     1     1     1     1     1     1     1     1     1     1     1     1     1     1
  76      1     1     1     1     1     1     1     1     1     1     1     1     1     1     1     1     1     0     1     1
          1     1     1     1     1     1     1     1     1     1     1     1     1     1     1     1     1     1     1     1
          1     1     1     1     1     1     1     1     1     1     1     1     1     1     1     1     1     1     1     1
          1     1     1     1     1     1     1     1     1     1     1     1     1     1     1     1
  77      1     1     1     1     1     1     1     1     1     1     1     1     1     1     1     1     0     0     1     1
          1     1     1     1     1     1     1     1     1     1     1     1     1     1     1     1     1     1     1     1
          1     1     1     1     1     1     1     1     1     1     1     1     1     1     1     1     1     1     1     1
          1     1     1     1     1     1     1     1     1     1     1     1     1     1     1     1
  78      1     1     1     1     1     1     1     1     1     1     1     1     1     1     1     1     0     0     1     1
          1     1     1     1     1     1     1     1     1     1     1     1     1     1     1     1     1     1     1     1
          1     1     1     1     1     1     1     1     1     1     1     1     1     1     1     1     1     1     1     1
          1     1     1     1     1     1     1     1     1     1     1     1     1     1     1     1
  79      1     1     1     1     1     1     1     1     1     1     1     1     1     1     1     1     0     0     1     1
          1     1     1     1     1     1     1     1     1     1     1     1     1     1     1     1     1     1     1     1
          1     1     1     1     1     1     1     1     1     1     1     1     1     1     1     1     1     1     1     1
          1     1     1     1     1     1     1     1     1     1     1     1     1     1     1     1
  80      1     1     1     1     1     1     1     1     1     1     1     1     1     1     1     1     0     1     1     1
          1     1     1     1     1     1     1     1     1     1     1     1     1     1     1     1     1     1     1     1
          1     1     1     1     1     1     1     1     1     1     1     1     1     1     1     1     1     1     1     1
          1     1     1     1     1     1     1     1     1     1     1     1     1     1     1     1
  81      1     1     1     1     1     1     1     1     1     1     1     1     1     1     1     0     0     1     1     1
          1     1     1     1     1     1     1     1     1     1     1     1     1     1     1     1     1     1     1     1
          1     1     1     1     1     1     1     1     1     1     1     1     1     1     1     1     1     1     1     1
          1     1     1     1     1     1     1     1     1     1     1     1     1     1     1     1
  82      1     1     1     1     1     1     1     1     1     1     1     1     1     1     1     0     0     1     1     1
          1     1     1     1     1     1     1     1     1     1     1     1     1     1     1     1     1     1     1     1
          1     1     1     1     1     1     1     1     1     1     1     1     1     1     1     1     1     1     1     1
          1     1     1     1     1     1     1     1     1     1     1     1     1     1     1     1
  83      1     1     1     1     1     1     1     1     1     1     1     1     1     1     1     0     1     1     1     1
          1     1     1     1     1     1     1     1     1     1     1     1     1     1     1     1     1     1     1     1
          1     1     1     1     1     1     1     1     1     1     1     1     1     1     1     1     1     1     1     1
          1     1     1     1     1     1     1     1     1     1     1     1     1     1     1     1
  84      1     1     1     1     1     1     1     1     1     1     1     1     1     1     0     0     1     1     1     1
          1     1     1     1     1     1     1     1     1     1     1     1     1     1     1     1     1     1     1     1
          1     1     1     1     1     1     1     1     1     1     1     1     1     1     1     1     1     1     1     1
          1     1     1     1     1     1     1     1     1     1     1     1     1     1     1     1
  85      1     1     1     1     1     1     1     1     1     1     1     1     1     1     0     0     1     1     1     1
          1     1     1     1     1     1     1     1     1     1     1     1     1     1     1     1     1     1     1     1
          1     1     1     1     1     1     1     1     1     1     1     1     1     1     1     1     1     1     1     1
          1     1     1     1     1     1     1     1     1     1     1     1     1     1     1     1
  86      1     1     1     1     1     1     1     1     1     1     1     1     1     1     0     1     1     1     1     1
          1     1     1     1     1     1     1     1     1     1     1     1     1     1     1     1     1     1     1     1
          1     1     1     1     1     1     1     1     1     1     1     1     1     1     1     1     1     1     1     1
          1     1     1     1     1     1     1     1     1     1     1     1     1     1     1     1
  87      1     1     1     1     1     1     1     1     1     1     1     1     1     0     0     1     1     1     1     1
          1     1     1     1     1     1     1     1     1     1     1     1     1     1     1     1     1     1     1     1
          1     1     1     1     1     1     1     1     1     1     1     1     1     1     1     1     1     1     1     1
          1     1     1     1     1     1     1     1     1     1     1     1     1     1     1     1
  88      1     1     1     1     1     1     1     1     1     1     1     1     1     0     0     1     1     1     1     1
          1     1     1     1     1     1     1     1     1     1     1     1     1     1     1     1     1     1     1     1
          1     1     1     1     1     1     1     1     1     1     1     1     1     1     1     1     1     1     1     1
          1     1     1     1     1     1     1     1     1     1     1     1     1     1     1     1
  89      1     1     1     1     1     1     1     1     1     1     1     1     1     0     1     1     1     1     1     1
          1     1     1     1     1     1     1     1     1     1     1     1     1     1     1     1     1     1     1     1
          1     1     1     1     1     1     1     1     1     1     1     1     1     1     1     1     1     1     1     1
          1     1     1     1     1     1     1     1     1     1     1     1     1     1     1     1
  90      1     1     1     1     1     1     1     1     1     1     1     1     0     0     1     1     1     1     1     1
          1     1     1     1     1     1     1     1     1     1     1     1     1     1     1     1     1     1     1     1
          1     1     1     1     1     1     1     1     1     1     1     1     1     1     1     1     1     1     1     1
          1     1     1     1     1     1     1     1     1     1     1     1     1     1     1     1
  91      1     1     1     1     1     1     1     1     1     1     1     1     0     0     1     1     1     1     1     1
          1     1     1     1     1     1     1     1     1     1     1     1     1     1     1     1     1     1     1     1
          1     1     1     1     1     1     1     1     1     1     1     1     1     1     1     1     1     1     1     1
          1     1     1     1     1     1     1     1     1     1     1     1     1     1     1     1
  92      1     1     1     1     1     1     1     1     1     1     1     1     0     1     1     1     1     1     1     1
          1     1     1     1     1     1     1     1     1     1     1     1     1     1     1     1     1     1     1     1
          1     1     1     1     1     1     1     1     1     1     1     1     1     1     1     1     1     1     1     1
          1     1     1     1     1     1     1     1     1     1     1     1     1     1     1     1
  93      1     1     1     1     1     1     1     1     1     1     1     1     0     1     1     1     1     1     1     1
          1     1     1     1     1     1     1     1     1     1     1     1     1     1     1     1     1     1     1     1
          1     1     1     1     1     1     1     1     1     1     1     1     1     1     1     1     1     1     1     1
          1     1     1     1     1     1     1     1     1     1     1     1     1     1     1     1
  94      1     1     1     1     1     1     1     1     1     1     1     0     0     1     1     1     1     1     1     1
          1     1     1     1     1     1     1     1     1     1     1     1     1     1     1     1     1     1     1     1
          1     1     1     1     1     1     1     1     1     1     1     1     1     1     1     1     1     1     1     1
          1     1     1     1     1     1     1     1     1     1     1     1     1     1     1     1
  95      1     1     1     1     1     1     1     1     1     1     1     0     1     1     1     1     1     1     1     1
          1     1     1     1     1     1     1     1     1     1     1     1     1     1     1     1     1     1     1     1
          1     1     1     1     1     1     1     1     1     1     1     1     1     1     1     1     1     1     1     1
          1     1     1     1     1     1     1     1     1     1     1     1     1     1     1     1
  96      1     1     1     1     1     1     1     1     1     1     1     0     1     1     1     1     1     1     1     1
          1     1     1     1     1     1     1     1     1     1     1     1     1     1     1     1     1     1     1     1
          1     1     1     1     1     1     1     1     1     1     1     1     1     1     1     1     1     1     1     1
          1     1     1     1     1     1     1     1     1     1     1     1     1     1     1     1
  97      1     1     1     1     1     1     1     1     1     1     0     0     1     1     1     1     1     1     1     1
          1     1     1     1     1     1     1     1     1     1     1     1     1     1     1     1     1     1     1     1
          1     1     1     1     1     1     1     1     1     1     1     1     1     1     1     1     1     1     1     1
          1     1     1     1     1     1     1     1     1     1     1     1     1     1     1     1
  98      1     1     1     1     1     1     1     1     1     1     0     1     1     1     1     1     1     1     1     1
          1     1     1     1     1     1     1     1     1     1     1     1     1     1     1     1     1     1     1     1
          1     1     1     1     1     1     1     1     1     1     1     1     1     1     1     1     1     1     1     1
          1     1     1     1     1     1     1     1     1     1     1     1     1     1     1     1
  99      1     1     1     1     1     1     1     1     1     1     0     1     1     1     1     1     1     1     1     1
          1     1     1     1     1     1     1     1     1     1     1     1     1     1     1     1     1     1     1     1
          1     1     1     1     1     1     1     1     1     1     1     1     1     1     1     1     1     1     1     1
          1     1     1     1     1     1     1     1     1     1     1     1     1     1     1     1
 100      1     1     1     1     1     1     1     1     1     0     0     1     1     1     1     1     1     1     1     1
          1     1     1     1     1     1     1     1     1     1     1     1     1     1     1     1     1     1     1     1
          1     1     1     1     1     1     1     1     1     1     1     1     1     1     1     1     1     1     1     1
          1     1     1     1     1     1     1     1     1     1     1     1     1     1     1     1
 101      1     1     1     1     1     1     1     1     1     0     1     1     1     1     1     1     1     1     1     1
          1     1     1     1     1     1     1     1     1     1     1     1     1     1     1     1     1     1     1     1
          1     1     1     1     1     1     1     1     1     1     1     1     1     1     1     1     1     1     1     1
          1     1     1     1     1     1     1     1     1     1     1     1     1     1     1     1
 102      1     1     1     1     1     1     1     1     1     0     1     1     1     1     1     1     1     1     1     1
          1     1     1     1     1     1     1     1     1     1     1     1     1     1     1     1     1     1     1     1
          1     1     1     1     1     1     1     1     1     1     1     1     1     1     1     1     1     1     1     1
          1     1     1     1     1     1     1     1     1     1     1     1     1     1     1     1
 103      1     1     1     1     1     1     1     1     0     0     1     1     1     1     1     1     1     1     1     1
          1     1     1     1     1     1     1     1     1     1     1     1     1     1     1     1     1     1     1     1
          1     1     1     1     1     1     1     1     1     1     1     1     1     1     1     1     1     1     1     1
          1     1     1     1     1     1     1     1     1     1     1     1     1     1     1     1
 104      1     1     1     1     1     1     1     1     0     0     1     1     1     1     1     1     1     1     1     1
          1     1     1     1     1     1     1     1     1     1     1     1     1     1     1     1     1     1     1     1
          1     1     1     1     1     0     0     0     0     0     0     1     1     1     1     1     1     1     1     1
          1     1     1     1     1     1     1     1     1     1     1     1     1     1     1     1
 105      1     1     1     1     1     1     1     1     0     1     1     1     1     1     1     1     1     1     1     1
          1     1     1     1     1     1     1     1     1     1     1     1     1     1     1     1     1     1     1     1
          1     1     0     0     0     0     0     0     0     0     0     0     0     0     0     0     0     0     1     1
          1     1     1     1     1     1     1     1     1     1     1     1     1     1     1     1
 106      1     1     1     1     1     1     1     1     0     1     1     1     1     1     1     1     1     1     1     1
          1     1     1     1     1     1     1     1     1     1     1     1     1     1     1     1     1     1     1     1
          1     1     0     0     0     0     0     0     0     0     0     0     0     0     0     0     0     0     0     0
          0     0     0     1     1     1     1     1     1     1     1     1     1     1     1     1
 107      1     1     1     1     1     1     1     0     0     1     1     1     1     1     1     1     1     1     1     1
          1     1     1     1     1     1     1     1     1     1     1     1     1     1     1     1     1     1     1     1
          1     0     0     0     0     0     0     0     0     0     0     0     0     0     0     0     0     0     0     0
          0     0     0     0     0     0     0     0     1     1     1     1     1     1     1     1
 108      1     1     1     1     1     1     1     0     1     1     1     1     1     1     1     1     1     1     1     1
          1     1     1     1     1     1     1     1     1     1     1     1     1     1     1     1     1     1     1     1
          1     0     0     0     0     0     0     0     0     0     0     0     0     0     0     0     0     0     0     0
          0     0     0     0     0     0     0     0     0     0     0     0     1     1     1     1
 109      1     1     1     1     1     1     1     0     1     1     1     1     1     1     1     1     1     1     1     1
          1     1     1     1     1     1     1     1     1     1     1     1     1     1     1     1     1     1     1     1
          0     0     0     0     0     0     0     0     0     0     0     0     0     0     0     0     0     0     0     0
          0     0     0     0     0     0     0     0     0     0     0     0     0     0     0     1
 110      1     1     1     1     1     1     0     0     1     1     1     1     1     1     1     1     1     1     1     1
          1     1     1     1     1     1     1     1     1     1     1     1     1     1     1     1     1     1     1     1
          0     0     0     0     0     0     0     0     0     0     0     0     0     0     0     0     0     0     0     0
          0     0     0     0     0     0     0     0     0     0     0     0     0     0     0     0
 111      1     1     1     1     1     1     0     1     1     1     1     1     1     1     1     1     1     1     1     1
          1     1     1     1     1     1     1     1     1     1     1     1     1     1     1     1     1     1     1     0
          0     0     0     0     0     0     0     0     0     0     0     0     0     0     0     0     0     0     0     0
          0     0     0     0     0     0     0     0     0     0     0     0     0     0     0     0
 112      1     1     1     1     1     1     0     1     1     1     1     1     1     1     1     1     1     1     1     1
          1     1     1     1     1     1     1     1     1     1     1     1     1     1     1     1     1     1     1     0
          0     0     0     0     0     0     0     0     0     0     0     0     0     0     0     0     0     0     0     0
          0     0     0     0     0     0     0     0     0     0     0     0     0     0     0     0
 113      1     1     1     1     1     0     0     1     1     1     1     1     1     1     1     1     1     1     1     1
          1     1     1     1     1     1     1     1     1     1     1     1     1     1     1     1     1     1     0     0
          0     0     0     0     0     0     0     0     0     0     0     0     0     0     0     0     0     0     0     0
          0     0     0     0     0     0     0     0     0     0     0     0     0     0     0     0
 114      1     1     1     1     1     0     1     1     1     1     1     1     1     1     1     1     1     1     1     1
          1     1     1     1     1     1     1     1     1     1     1     1     1     1     1     1     1     1     0     0
          0     0     0     0     0     0     0     0     0     0     0     0     0     0     0     0     0     0     0     0
          0     0     0     0     0     0     0     0     0     0     0     0     0     0     0     0
 115      1     1     1     1     1     0     1     1     1     1     1     1     1     1     1     1     1     1     1     1
          1     1     1     1     1     1     1     1     1     1     1     1     1     1     1     1     1     1     1     0
          0     0     0     0     0     0     0     0     0     0     0     0     0     0     0     0     0     0     0     0
          0     0     0     0     0     0     0     0     0     0     0     0     0     0     0     0
 116      1     1     1     1     0     0     1     1     1     1     1     1     1     1     1     1     1     1     1     1
          1     1     1     1     1     1     1     1     1     1     1     1     1     1     1     1     1     1     1     0
          0     0     0     0     0     0     0     0     0     0     0     0     0     0     0     0     0     0     0     0
          0     0     0     0     0     0     0     0     0     0     0     0     0     0     0     0
 117      1     1     1     1     0     1     1     1     1     1     1     1     1     1     1     1     1     1     1     1
          1     1     1     1     1     1     1     1     1     1     1     1     1     1     1     1     1     1     1     1
          0     0     0     0     0     0     0     0     0     0     0     0     0     0     0     0     0     0     0     0
          0     0     0     0     0     0     0     0     0     0     0     0     0     0     0     0
 118      1     1     1     1     0     1     1     1     1     1     1     1     1     1     1     1     1     1     1     1
          1     1     1     1     1     1     1     1     1     1     1     1     1     1     1     1     1     1     1     1
          0     0     0     0     0     0     0     0     0     0     0     0     0     0     0     0     0     0     0     0
          0     0     0     0     0     0     0     0     0     0     0     0     0     0     0     0
 119      1     1     1     1     0     1     1     1     1     1     1     1     1     1     1     1     1     1     1     1
          1     1     1     1     1     1     1     1     1     1     1     1     1     1     1     1     1     1     1     1
          1     0     0     0     0     0     0     0     0     0     0     0     0     0     0     0     0     0     0     0
          0     0     0     0     0     0     0     0     0     0     0     0     0     0     0     0
 120      1     1     1     0     1     1     1     1     1     1     1     1     1     1     1     1     1     1     1     1
          1     1     1     1     1     1     1     1     1     1     1     1     1     1     1     1     1     1     1     1
          1     0     0     0     0     0     0     0     0     0     0     0     0     0     0     0     0     0     0     0
          0     0     0     0     0     0     0     0     0     0     0     0     0     0     0     0
 121      1     1     1     0     1     1     1     1     1     1     1     1     1     1     1     1     1     1     1     1
          1     1     1     1     1     1     1     1     1     1     1     1     1     1     1     1     1     1     1     1
          1     1     0     0     0     0     0     0     0     0     0     0     0     0     0     0     0     0     0     0
          0     0     0     0     0     0     0     0     0     0     0     0     0     0     0     0
 122      1     1     1     0     1     1     1     1     1     1     1     1     1     1     1     1     1     1     1     1
          1     1     1     1     1     1     1     1     1     1     1     1     1     1     1     1     1     1     1     1
          1     1     1     0     0     0     0     0     0     0     0     0     0     0     0     0     0     0     0     0
          0     0     0     0     0     0     0     0     0     0     0     0     0     0     0     0
 123      1     1     0     1     1     1     1     1     1     1     1     1     1     1     1     1     1     1     1     1
          1     1     1     1     1     1     1     1     1     1     1     1     1     1     1     1     1     1     1     1
          1     1     1     0     0     0     0     0     0     0     0     0     0     0     0     0     0     0     0     0
          0     0     0     0     0     0     0     0     0     0     0     0     0     0     0     0
 124      1     1     0     1     1     1     1     1     1     1     1     1     1     1     1     1     1     1     1     1
          1     1     1     1     1     1     1     1     1     1     1     1     1     1     1     1     1     1     1     1
          1     1     1     1     0     0     0     0     0     0     0     0     0     0     0     0     0     0     0     0
          0     0     0     0     0     0     0     0     0     0     0     0     0     0     0     0
 125      1     1     1     1     1     1     1     1     1     1     1     1     1     1     1     1     1     1     1     1
          1     1     1     1     1     1     1     1     1     1     1     1     1     1     1     1     1     1     1     1
          1     1     1     1     1     0     0     0     0     0     0     0     0     0     0     0     0     0     0     0
          0     0     0     0     0     0     0     0     0     0     0     0     0     0     0     0
 126      1     1     1     1     1     1     1     1     1     1     1     1     1     1     1     1     1     1     1     1
          1     1     1     1     1     1     1     1     1     1     1     1     1     1     1     1     1     1     1     1
          1     1     1     1     1     0     0     0     0     0     0     0     0     0     0     0     0     0     0     0
          0     0     0     0     0     0     0     0     0     0     0     0     0     0     0     0
 127      1     1     1     1     1     1     1     1     1     1     1     1     1     1     1     1     1     1     1     1
          1     1     1     1     1     1     1     1     1     1     1     1     1     1     1     1     1     1     1     1
          1     1     1     1     1     1     0     0     0     0     0     0     0     0     0     0     0     0     0     0
          0     0     0     0     0     0     0     0     0     0     0     0     0     0     0     0
 128      1     1     1     1     1     1     1     1     1     1     1     1     1     1     1     1     1     1     1     1
          1     1     1     1     1     1     1     1     1     1     1     1     1     1     1     1     1     1     1     1
          1     1     1     1     1     1     1     0     0     0     0     0     0     0     0     0     0     0     0     0
          0     0     0     0     0     0     0     0     0     0     0     0     0     0     0     0
 129      1     1     1     1     1     1     1     1     1     1     1     1     1     1     1     1     1     1     1     1
          1     1     1     1     1     1     1     1     1     1     1     1     1     1     1     1     1     1     1     1
          1     1     1     1     1     1     1     1     0     0     0     0     0     0     0     0     0     0     0     0
          0     0     0     0     0     0     0     0     0     0     0     0     0     0     0     0
 130      1     1     1     1     1     1     1     1     1     1     1     1     1     1     1     1     1     1     1     1
          1     1     1     1     1     1     1     1     1     1     1     1     1     1     1     1     1     1     1     1
          1     1     1     1     1     1     1     1     1     0     0     0     0     0     0     0     0     0     0     0
          0     0     0     0     0     0     0     0     0     0     0     0     0     0     0     0
 131      1     1     1     1     1     1     1     1     1     1     1     0     0     0     0     0     0     1     1     1
          1     1     1     1     1     1     1     1     1     1     1     1     1     1     1     1     1     1     1     1
          0     0     0     0     0     1     1     1     1     0     0     0     0     0     0     0     0     0     0     0
          0     0     0     0     0     0     0     0     0     0     0     0     0     0     0     0

 PARAMETER VALUE INPUT FILE,  INPUT READ FROM UNIT 5052
 #pval template file from pyemu

 NUMBER OF PARAMETER VALUES TO BE READ FROM PARAMETER VALUE FILE:    4

 INFORMATION ON PARAMETERS LISTED IN PARAMETER FILE
               VALUE IN
    NAME     PARAMETER FILE
 ----------  --------------
 hk01         0.10000E-01
 hk02          5.0000    
 sy01         0.10000    
 sy02          1.0000    
 -----------------------------------------------------------------------------
 FOR THE PARAMETERS LISTED IN THE TABLE ABOVE, PARAMETER VALUES IN INDIVIDUAL
 PACKAGE INPUT FILES ARE REPLACED BY THE VALUES FROM THE PARAMETER INPUT FILE.
 # NWT: Newton Solver file created on 9/8/2020 by ModelMuse version 4.2.0.0.

 NWT1 -- Newton Solver, VERSION 1.0.6, 12/05/2012
         INPUT READ FROM UNIT***

 COMPLEX OPTION:
 DEFAULT SOLVER INPUT VALUES REFLECT STRONGLY NONLINEAR MODEL
 ***XMD linear solver will be used***
 
   CONVERGENCE CRITERION OF   0.100000E+01 FOR HEAD SOLUTION
   AND A TOLERANCE OF   0.500000E+03 FOR FLOW SOLUTION AND 
   A MAXIMUM OF  2000 OUTER ITERATIONS. 


   D-B-D REDUCTION FACTOR OF    0.850000E+00 AND 
   A D-B-D INCREASE FACTOR OF    0.100000E-04 AND 
   A D-B-D RELAXATION OF    0.000000E+00 AND 
   A MOMENTUM FACTOR OF    0.100000E+00 .


   BACKTRACKING IS ACTIVE 
   THE MAXIMUM NUMBER OF BACKTRACKS IS    50 AND 
   THE BACKTRACKING TOLERANCE IS    0.110000E+01 AND
   THE BACKTRACKING REDUCTION FACTOR IS    0.700000E+00

 XMD -- LINEAR SOLUTION BY XMD PACKAGE VERSION 1.30
     BY MOTOMU IBARAKI, OHIO STATE UNIVERSITY, COLOMBUS, OH
                 INPUT READ FROM UNIT***
 ACCELERATION METHOD                    (IACL) =         2
 NODE ORDERING FLAG                   (NORDER) =         1
 LEVEL OF FILL                         (LEVEL) =         5
 MAXIMUM NUMBER OF ORTHOGONALIZATIONS  (NORTH) =         7
 INDEX FOR USING REDUCED SYSTEM      (IREDSYS) =         1
 RESID. REDUCTION CONVERGE CRITERION  (RRCTOL) =  0.000000E+00
 INDEX FOR USING DROP TOLERANCE     (IDROPTOL) =         1
 DROP TOLERANCE VALUE                  (EPSRN) =  0.100000E-04
 CONVERGENCE CRITERIA OF           (HCLOSEXMD) =  0.100000E-04
 MAX. NUMBER OF LINEAR ITERATIONS  (MXITERXMD) =        50


 UPW1 -- UPSTREAM WEIGHTING FLOW PACKAGE, VERSION 1.0.6, 12/05/2012
         INPUT READ FROM UNIT***

 # UPW: Upstream Weighting package file created on 1/26/2022 by ModelMuse version 4.3.0.0.
 CELL-BY-CELL FLOWS WILL BE SAVED ON UNIT    9
     4 Named Parameters     

   LAYER FLAGS:
 LAYER       LAYTYP          LAYAVG    CHANI           LAYVKA           LAYWET
 ---------------------------------------------------------------------------
    1             1             0    -1.000E+00             0             0

   INTERPRETATION OF LAYER FLAGS:
                        INTERBLOCK     HORIZONTAL    DATA IN
         LAYER TYPE   TRANSMISSIVITY   ANISOTROPY   ARRAY VKA   WETTABILITY
 LAYER   (LAYTYP)        (LAYAVG)      (CHANI)     (LAYVKA)       (LAYWET)
 ---------------------------------------------------------------------------
    1   CONVERTIBLE      HARMONIC      VARIABLE    VERTICAL K  NON-WETTABLE

 PARAMETERS DEFINED IN THE NWT PACKAGE

 PARAMETER NAME:hk01         TYPE:HK     CLUSTERS:   1
 Parameter value from package file is:   1.00000E-03
 This value has been changed to:         1.00000E-02, as read from
 the Parameter Value file
                LAYER:   1    MULTIPLIER ARRAY: NONE    ZONE ARRAY: hk01_Z1
                ZONE VALUES:    1

 PARAMETER NAME:hk02         TYPE:HK     CLUSTERS:   1
 Parameter value from package file is:    26.100    
 This value has been changed to:          5.0000    , as read from
 the Parameter Value file
                LAYER:   1    MULTIPLIER ARRAY: NONE    ZONE ARRAY: hk02_Z1
                ZONE VALUES:    1

 PARAMETER NAME:sy01         TYPE:SY     CLUSTERS:   1
 Parameter value from package file is:   0.10000    
                LAYER:   1    MULTIPLIER ARRAY: NONE    ZONE ARRAY: sy01_Z1
                ZONE VALUES:    1

 PARAMETER NAME:sy02         TYPE:SY     CLUSTERS:   1
 Parameter value from package file is:   0.10000    
 This value has been changed to:          1.0000    , as read from
 the Parameter Value file
                LAYER:   1    MULTIPLIER ARRAY: NONE    ZONE ARRAY: sy02_Z1
                ZONE VALUES:    1

    HYD. COND. ALONG ROWS FOR LAYER   1 WILL BE DEFINED BY PARAMETERS
 (PRINT FLAG=  12)

    HYD. COND. ALONG ROWS is defined by the following parameters:
 hk01      
 hk02      


              HYD. COND. ALONG ROWS FOR LAYER   1

            1           2           3           4           5           6           7           8           9          10
           11          12          13          14          15          16          17          18          19          20
           21          22          23          24          25          26          27          28          29          30
           31          32          33          34          35          36          37          38          39          40
           41          42          43          44          45          46          47          48          49          50
           51          52          53          54          55          56          57          58          59          60
           61          62          63          64          65          66          67          68          69          70
           71          72          73          74          75          76
 ........................................................................................................................
   1    0.000       0.000       0.000       0.000       0.000       0.000       0.000       0.000       0.000       0.000    
        0.000       0.000       0.000       0.000       0.000       0.000       0.000       0.000       0.000       0.000    
        0.000       0.000       0.000       0.000       0.000       0.000       0.000       0.000       0.000       0.000    
        0.000       0.000       0.000       0.000       0.000       0.000       0.000       0.000       0.000       0.000    
        0.000       0.000       0.000       0.000       0.000       0.000       0.000       0.000       0.000       0.000    
        0.000      1.0000E-02  1.0000E-02   0.000       0.000       0.000       0.000       0.000       0.000       0.000    
        0.000       0.000       0.000       0.000       0.000       0.000       0.000       0.000       0.000       0.000    
        0.000      1.0000E-02  1.0000E-02  1.0000E-02   0.000      1.0000E-02
   2    0.000       0.000       0.000       0.000       0.000       0.000       0.000       0.000       0.000       0.000    
        0.000       0.000       0.000       0.000       0.000       0.000       0.000       0.000       0.000       0.000    
        0.000       0.000       0.000       0.000       0.000       0.000       0.000       0.000       0.000       0.000    
        0.000       0.000       0.000       0.000       0.000       0.000       0.000       0.000       0.000       0.000    
        0.000       0.000       0.000       0.000       0.000       0.000       0.000       0.000       0.000       0.000    
        0.000      1.0000E-02  1.0000E-02  1.0000E-02   0.000       0.000       0.000       0.000       0.000       0.000    
        0.000       0.000       0.000       0.000       0.000       0.000       0.000      1.0000E-02  1.0000E-02  1.0000E-02
       1.0000E-02  1.0000E-02  1.0000E-02  1.0000E-02  1.0000E-02  1.0000E-02
   3    0.000       0.000       0.000       0.000       0.000       0.000       0.000       0.000       0.000       0.000    
        0.000       0.000       0.000       0.000       0.000       0.000       0.000       0.000       0.000       0.000    
        0.000       0.000       0.000       0.000       0.000       0.000       0.000       0.000       0.000       0.000    
        0.000       0.000       0.000       0.000       0.000       0.000       0.000       0.000       0.000       0.000    
        0.000       0.000       0.000       0.000       0.000       0.000       0.000       0.000       0.000       0.000    
        0.000      1.0000E-02  1.0000E-02  1.0000E-02   0.000       0.000       0.000       0.000       0.000       0.000    
        0.000       0.000      1.0000E-02  1.0000E-02  1.0000E-02  1.0000E-02  1.0000E-02  1.0000E-02  1.0000E-02  1.0000E-02
       1.0000E-02  1.0000E-02  1.0000E-02  1.0000E-02  1.0000E-02  1.0000E-02
   4    0.000       0.000       0.000       0.000       0.000       0.000       0.000       0.000       0.000       0.000    
        0.000       0.000       0.000       0.000       0.000       0.000       0.000       0.000       0.000       0.000    
        0.000       0.000       0.000       0.000       0.000       0.000       0.000       0.000       0.000       0.000    
        0.000       0.000       0.000       0.000       0.000       0.000       0.000       0.000       0.000       0.000    
        0.000       0.000       0.000       0.000       0.000       0.000       0.000       0.000       0.000       0.000    
       1.0000E-02  1.0000E-02  1.0000E-02  1.0000E-02  1.0000E-02   0.000       0.000      1.0000E-02  1.0000E-02  1.0000E-02
       1.0000E-02  1.0000E-02  1.0000E-02  1.0000E-02  1.0000E-02  1.0000E-02  1.0000E-02  1.0000E-02  1.0000E-02  1.0000E-02
       1.0000E-02  1.0000E-02  1.0000E-02  1.0000E-02  1.0000E-02  1.0000E-02
   5    0.000       0.000       0.000       0.000       0.000       0.000       0.000       0.000       0.000       0.000    
        0.000       0.000       0.000       0.000       0.000       0.000       0.000       0.000       0.000       0.000    
        0.000       0.000       0.000       0.000       0.000       0.000       0.000       0.000       0.000       0.000    
        0.000       0.000       0.000       0.000       0.000       0.000       0.000       0.000       0.000       0.000    
        0.000       0.000       0.000       0.000       0.000       0.000       0.000       0.000       0.000       0.000    
       1.0000E-02  1.0000E-02  1.0000E-02  1.0000E-02  1.0000E-02  1.0000E-02  1.0000E-02  1.0000E-02  1.0000E-02  1.0000E-02
       1.0000E-02  1.0000E-02  1.0000E-02  1.0000E-02  1.0000E-02  1.0000E-02  1.0000E-02  1.0000E-02  1.0000E-02  1.0000E-02
       1.0000E-02  1.0000E-02  1.0000E-02  1.0000E-02  1.0000E-02   0.000    
   6    0.000       0.000       0.000       0.000       0.000       0.000       0.000       0.000       0.000       0.000    
        0.000       0.000       0.000       0.000       0.000       0.000       0.000       0.000       0.000       0.000    
        0.000       0.000       0.000       0.000       0.000       0.000       0.000       0.000       0.000       0.000    
        0.000       0.000       0.000       0.000       0.000       0.000       0.000       0.000       0.000       0.000    
        0.000       0.000       0.000       0.000       0.000       0.000       0.000       0.000       0.000      1.0000E-02
       1.0000E-02  1.0000E-02  1.0000E-02  1.0000E-02  1.0000E-02  1.0000E-02  1.0000E-02  1.0000E-02  1.0000E-02  1.0000E-02
       1.0000E-02  1.0000E-02  1.0000E-02  1.0000E-02  1.0000E-02  1.0000E-02  1.0000E-02  1.0000E-02  1.0000E-02  1.0000E-02
       1.0000E-02  1.0000E-02  1.0000E-02  1.0000E-02  1.0000E-02   0.000    
   7    0.000       0.000       0.000       0.000       0.000       0.000       0.000       0.000       0.000       0.000    
        0.000       0.000       0.000       0.000       0.000       0.000       0.000       0.000       0.000       0.000    
        0.000       0.000       0.000       0.000       0.000       0.000       0.000       0.000       0.000       0.000    
        0.000       0.000       0.000       0.000       0.000       0.000       0.000       0.000       0.000       0.000    
        0.000       0.000       0.000       0.000       0.000       0.000       0.000       0.000       0.000      1.0000E-02
       1.0000E-02  1.0000E-02  1.0000E-02  1.0000E-02  1.0000E-02  1.0000E-02  1.0000E-02  1.0000E-02  1.0000E-02  1.0000E-02
       1.0000E-02  1.0000E-02  1.0000E-02  1.0000E-02  1.0000E-02  1.0000E-02  1.0000E-02  1.0000E-02  1.0000E-02  1.0000E-02
       1.0000E-02  1.0000E-02  1.0000E-02  1.0000E-02  1.0000E-02   0.000    
   8    0.000       0.000       0.000       0.000       0.000       0.000       0.000       0.000       0.000       0.000    
        0.000       0.000       0.000       0.000       0.000       0.000       0.000       0.000       0.000       0.000    
        0.000       0.000       0.000       0.000       0.000       0.000       0.000       0.000       0.000       0.000    
        0.000       0.000       0.000       0.000       0.000       0.000       0.000       0.000       0.000       0.000    
        0.000       0.000       0.000       0.000       0.000       0.000       0.000       0.000      1.0000E-02  1.0000E-02
       1.0000E-02  1.0000E-02  1.0000E-02  1.0000E-02  1.0000E-02  1.0000E-02  1.0000E-02  1.0000E-02  1.0000E-02  1.0000E-02
       1.0000E-02  1.0000E-02  1.0000E-02  1.0000E-02  1.0000E-02  1.0000E-02  1.0000E-02  1.0000E-02  1.0000E-02  1.0000E-02
       1.0000E-02  1.0000E-02  1.0000E-02  1.0000E-02  1.0000E-02  1.0000E-02
   9    0.000       0.000       0.000       0.000       0.000       0.000       0.000       0.000       0.000       0.000    
        0.000       0.000       0.000       0.000       0.000       0.000       0.000       0.000       0.000       0.000    
        0.000       0.000       0.000       0.000       0.000       0.000       0.000       0.000       0.000       0.000    
        0.000       0.000       0.000       0.000       0.000       0.000       0.000       0.000       0.000       0.000    
        0.000       0.000       0.000       0.000       0.000       0.000       0.000      1.0000E-02  1.0000E-02  1.0000E-02
       1.0000E-02  1.0000E-02  1.0000E-02  1.0000E-02  1.0000E-02  1.0000E-02  1.0000E-02  1.0000E-02  1.0000E-02  1.0000E-02
       1.0000E-02  1.0000E-02  1.0000E-02  1.0000E-02  1.0000E-02  1.0000E-02  1.0000E-02  1.0000E-02  1.0000E-02  1.0000E-02
       1.0000E-02  1.0000E-02  1.0000E-02  1.0000E-02  1.0000E-02  1.0000E-02
  10    0.000       0.000       0.000       0.000       0.000       0.000       0.000       0.000       0.000       0.000    
        0.000       0.000       0.000       0.000       0.000       0.000       0.000       0.000       0.000       0.000    
        0.000       0.000       0.000       0.000       0.000       0.000       0.000       0.000       0.000       0.000    
        0.000       0.000       0.000       0.000       0.000       0.000       0.000       0.000       0.000       0.000    
        0.000       0.000       0.000       0.000       0.000       0.000      1.0000E-02  1.0000E-02  1.0000E-02  1.0000E-02
       1.0000E-02  1.0000E-02  1.0000E-02  1.0000E-02  1.0000E-02  1.0000E-02  1.0000E-02  1.0000E-02  1.0000E-02  1.0000E-02
       1.0000E-02  1.0000E-02  1.0000E-02  1.0000E-02  1.0000E-02  1.0000E-02  1.0000E-02  1.0000E-02  1.0000E-02  1.0000E-02
       1.0000E-02  1.0000E-02  1.0000E-02  1.0000E-02  1.0000E-02  1.0000E-02
  11    0.000       0.000       0.000       0.000       0.000       0.000       0.000       0.000       0.000       0.000    
        0.000       0.000       0.000       0.000       0.000       0.000       0.000       0.000       0.000       0.000    
        0.000       0.000       0.000       0.000       0.000       0.000       0.000       0.000       0.000       0.000    
        0.000       0.000       0.000       0.000       0.000       0.000       0.000       0.000       0.000       0.000    
        0.000       0.000       0.000       0.000       0.000      1.0000E-02  1.0000E-02  1.0000E-02  1.0000E-02  1.0000E-02
       1.0000E-02  1.0000E-02  1.0000E-02  1.0000E-02  1.0000E-02  1.0000E-02  1.0000E-02  1.0000E-02  1.0000E-02  1.0000E-02
       1.0000E-02  1.0000E-02  1.0000E-02  1.0000E-02  1.0000E-02  1.0000E-02  1.0000E-02  1.0000E-02  1.0000E-02  1.0000E-02
       1.0000E-02  1.0000E-02  1.0000E-02  1.0000E-02  1.0000E-02   0.000    
  12    0.000       0.000       0.000       0.000       0.000       0.000       0.000       0.000       0.000       0.000    
        0.000       0.000       0.000       0.000       0.000       0.000       0.000       0.000       0.000       0.000    
        0.000       0.000       0.000       0.000       0.000       0.000       0.000       0.000       0.000       0.000    
        0.000       0.000       0.000       0.000       0.000       0.000       0.000       0.000       0.000       0.000    
        0.000       0.000       0.000       0.000      1.0000E-02  1.0000E-02  1.0000E-02  1.0000E-02  1.0000E-02  1.0000E-02
       1.0000E-02  1.0000E-02  1.0000E-02  1.0000E-02  1.0000E-02  1.0000E-02  1.0000E-02  1.0000E-02  1.0000E-02  1.0000E-02
       1.0000E-02  1.0000E-02  1.0000E-02  1.0000E-02  1.0000E-02  1.0000E-02  1.0000E-02  1.0000E-02  1.0000E-02  1.0000E-02
       1.0000E-02  1.0000E-02  1.0000E-02  1.0000E-02  1.0000E-02   0.000    
  13    0.000       0.000       0.000       0.000       0.000       0.000       0.000       0.000       0.000       0.000    
        0.000       0.000       0.000       0.000       0.000       0.000       0.000       0.000       0.000       0.000    
        0.000       0.000       0.000       0.000       0.000       0.000       0.000       0.000       0.000       0.000    
        0.000       0.000       0.000       0.000       0.000       0.000       0.000       0.000       0.000       0.000    
        0.000       0.000       0.000      1.0000E-02  1.0000E-02  1.0000E-02  1.0000E-02  1.0000E-02  1.0000E-02  1.0000E-02
       1.0000E-02  1.0000E-02  1.0000E-02  1.0000E-02  1.0000E-02  1.0000E-02  1.0000E-02  1.0000E-02  1.0000E-02  1.0000E-02
       1.0000E-02  1.0000E-02  1.0000E-02  1.0000E-02  1.0000E-02  1.0000E-02  1.0000E-02  1.0000E-02  1.0000E-02  1.0000E-02
       1.0000E-02  1.0000E-02  1.0000E-02  1.0000E-02  1.0000E-02   0.000    
  14    0.000       0.000       0.000       0.000       0.000       0.000       0.000       0.000       0.000       0.000    
        0.000       0.000       0.000       0.000       0.000       0.000       0.000       0.000       0.000       0.000    
        0.000       0.000       0.000       0.000       0.000       0.000       0.000       0.000       0.000       0.000    
        0.000       0.000       0.000       0.000       0.000       0.000       0.000       0.000       0.000       0.000    
        0.000       0.000      1.0000E-02  1.0000E-02  1.0000E-02  1.0000E-02  1.0000E-02  1.0000E-02  1.0000E-02  1.0000E-02
       1.0000E-02  1.0000E-02  1.0000E-02  1.0000E-02  1.0000E-02  1.0000E-02  1.0000E-02  1.0000E-02  1.0000E-02  1.0000E-02
       1.0000E-02  1.0000E-02  1.0000E-02  1.0000E-02  1.0000E-02  1.0000E-02  1.0000E-02  1.0000E-02  1.0000E-02  1.0000E-02
       1.0000E-02  1.0000E-02  1.0000E-02  1.0000E-02  1.0000E-02  1.0000E-02
  15    0.000       0.000       0.000       0.000       0.000       0.000       0.000       0.000       0.000       0.000    
        0.000       0.000       0.000       0.000       0.000       0.000       0.000       0.000       0.000       0.000    
        0.000       0.000       0.000       0.000       0.000       0.000       0.000       0.000       0.000       0.000    
        0.000       0.000       0.000       0.000       0.000       0.000       0.000       0.000       0.000       0.000    
        0.000      1.0000E-02  1.0000E-02  1.0000E-02  1.0000E-02  1.0000E-02  1.0000E-02  1.0000E-02  1.0000E-02  1.0000E-02
       1.0000E-02  1.0000E-02  1.0000E-02  1.0000E-02  1.0000E-02  1.0000E-02  1.0000E-02  1.0000E-02  1.0000E-02  1.0000E-02
       1.0000E-02  1.0000E-02  1.0000E-02  1.0000E-02  1.0000E-02  1.0000E-02  1.0000E-02  1.0000E-02  1.0000E-02  1.0000E-02
       1.0000E-02  1.0000E-02  1.0000E-02  1.0000E-02  1.0000E-02  1.0000E-02
  16    0.000       0.000       0.000       0.000       0.000       0.000       0.000       0.000       0.000       0.000    
        0.000       0.000       0.000       0.000       0.000       0.000       0.000       0.000       0.000       0.000    
        0.000       0.000       0.000       0.000       0.000       0.000       0.000       0.000       0.000       0.000    
        0.000       0.000       0.000       0.000       0.000       0.000       0.000       0.000       0.000       0.000    
       1.0000E-02  1.0000E-02  1.0000E-02  1.0000E-02  1.0000E-02  1.0000E-02  1.0000E-02  1.0000E-02  1.0000E-02  1.0000E-02
       1.0000E-02  1.0000E-02  1.0000E-02  1.0000E-02  1.0000E-02  1.0000E-02  1.0000E-02  1.0000E-02  1.0000E-02  1.0000E-02
       1.0000E-02  1.0000E-02  1.0000E-02  1.0000E-02  1.0000E-02  1.0000E-02  1.0000E-02  1.0000E-02  1.0000E-02  1.0000E-02
       1.0000E-02  1.0000E-02  1.0000E-02  1.0000E-02  1.0000E-02   0.000    
  17    0.000       0.000       0.000       0.000       0.000       0.000       0.000       0.000       0.000       0.000    
        0.000       0.000       0.000       0.000       0.000       0.000       0.000       0.000       0.000       0.000    
        0.000       0.000       0.000       0.000       0.000       0.000       0.000       0.000       0.000       0.000    
        0.000       0.000       0.000       0.000       0.000       0.000       0.000       0.000       0.000      1.0000E-02
       1.0000E-02  1.0000E-02  1.0000E-02  1.0000E-02  1.0000E-02  1.0000E-02  1.0000E-02  1.0000E-02  1.0000E-02  1.0000E-02
       1.0000E-02  1.0000E-02  1.0000E-02  1.0000E-02  1.0000E-02  1.0000E-02  1.0000E-02  1.0000E-02  1.0000E-02  1.0000E-02
       1.0000E-02  1.0000E-02  1.0000E-02  1.0000E-02  1.0000E-02  1.0000E-02  1.0000E-02  1.0000E-02  1.0000E-02  1.0000E-02
       1.0000E-02  1.0000E-02  1.0000E-02  1.0000E-02  1.0000E-02  1.0000E-02
  18    0.000       0.000       0.000       0.000       0.000       0.000       0.000       0.000       0.000       0.000    
        0.000       0.000       0.000       0.000       0.000       0.000       0.000       0.000       0.000       0.000    
        0.000       0.000       0.000       0.000       0.000       0.000       0.000       0.000       0.000       0.000    
        0.000       0.000       0.000       0.000       0.000       0.000       0.000       0.000      1.0000E-02  1.0000E-02
       1.0000E-02  1.0000E-02  1.0000E-02  1.0000E-02  1.0000E-02  1.0000E-02  1.0000E-02  1.0000E-02  1.0000E-02  1.0000E-02
       1.0000E-02  1.0000E-02  1.0000E-02  1.0000E-02  1.0000E-02  1.0000E-02  1.0000E-02  1.0000E-02  1.0000E-02  1.0000E-02
       1.0000E-02  1.0000E-02  1.0000E-02  1.0000E-02  1.0000E-02  1.0000E-02  1.0000E-02  1.0000E-02  1.0000E-02  1.0000E-02
       1.0000E-02  1.0000E-02  1.0000E-02  1.0000E-02  1.0000E-02  1.0000E-02
  19    0.000       0.000       0.000       0.000       0.000       0.000       0.000       0.000       0.000       0.000    
        0.000       0.000       0.000       0.000       0.000       0.000       0.000       0.000       0.000       0.000    
        0.000       0.000       0.000       0.000       0.000       0.000       0.000       0.000       0.000       0.000    
        0.000       0.000       0.000       0.000       0.000       0.000       0.000      1.0000E-02  1.0000E-02  1.0000E-02
       1.0000E-02  1.0000E-02  1.0000E-02  1.0000E-02  1.0000E-02  1.0000E-02  1.0000E-02  1.0000E-02  1.0000E-02  1.0000E-02
       1.0000E-02  1.0000E-02  1.0000E-02  1.0000E-02  1.0000E-02  1.0000E-02  1.0000E-02  1.0000E-02  1.0000E-02  1.0000E-02
       1.0000E-02  1.0000E-02  1.0000E-02  1.0000E-02  1.0000E-02  1.0000E-02  1.0000E-02  1.0000E-02  1.0000E-02  1.0000E-02
       1.0000E-02  1.0000E-02  1.0000E-02  1.0000E-02  1.0000E-02  1.0000E-02
  20    0.000       0.000       0.000       0.000       0.000       0.000       0.000       0.000       0.000       0.000    
        0.000       0.000       0.000       0.000       0.000       0.000       0.000       0.000       0.000       0.000    
        0.000       0.000       0.000       0.000       0.000       0.000       0.000       0.000       0.000       0.000    
        0.000       0.000       0.000       0.000       0.000       0.000      1.0000E-02  1.0000E-02  1.0000E-02  1.0000E-02
       1.0000E-02  1.0000E-02  1.0000E-02  1.0000E-02  1.0000E-02  1.0000E-02  1.0000E-02  1.0000E-02  1.0000E-02  1.0000E-02
       1.0000E-02  1.0000E-02  1.0000E-02  1.0000E-02  1.0000E-02  1.0000E-02  1.0000E-02  1.0000E-02  1.0000E-02  1.0000E-02
       1.0000E-02  1.0000E-02  1.0000E-02  1.0000E-02  1.0000E-02  1.0000E-02  1.0000E-02  1.0000E-02  1.0000E-02  1.0000E-02
       1.0000E-02  1.0000E-02  1.0000E-02  1.0000E-02  1.0000E-02  1.0000E-02
  21   1.0000E-02  1.0000E-02   0.000       0.000       0.000       0.000       0.000       0.000       0.000       0.000    
        0.000       0.000       0.000       0.000       0.000       0.000       0.000       0.000       0.000       0.000    
        0.000       0.000       0.000       0.000       0.000       0.000       0.000       0.000       0.000       0.000    
        0.000       0.000       0.000       0.000       0.000      1.0000E-02  1.0000E-02  1.0000E-02  1.0000E-02  1.0000E-02
       1.0000E-02  1.0000E-02  1.0000E-02  1.0000E-02  1.0000E-02  1.0000E-02  1.0000E-02  1.0000E-02  1.0000E-02  1.0000E-02
       1.0000E-02  1.0000E-02  1.0000E-02  1.0000E-02  1.0000E-02  1.0000E-02  1.0000E-02  1.0000E-02  1.0000E-02  1.0000E-02
       1.0000E-02  1.0000E-02  1.0000E-02  1.0000E-02  1.0000E-02  1.0000E-02  1.0000E-02  1.0000E-02  1.0000E-02  1.0000E-02
       1.0000E-02  1.0000E-02  1.0000E-02  1.0000E-02  1.0000E-02  1.0000E-02
  22   1.0000E-02  1.0000E-02  1.0000E-02  1.0000E-02  1.0000E-02   0.000       0.000       0.000       0.000       0.000    
        0.000       0.000       0.000       0.000       0.000       0.000       0.000       0.000       0.000       0.000    
        0.000       0.000       0.000       0.000       0.000       0.000       0.000       0.000       0.000       0.000    
        0.000       0.000      1.0000E-02  1.0000E-02  1.0000E-02  1.0000E-02  1.0000E-02  1.0000E-02  1.0000E-02  1.0000E-02
       1.0000E-02  1.0000E-02  1.0000E-02  1.0000E-02  1.0000E-02  1.0000E-02  1.0000E-02  1.0000E-02  1.0000E-02  1.0000E-02
       1.0000E-02  1.0000E-02  1.0000E-02  1.0000E-02  1.0000E-02  1.0000E-02  1.0000E-02  1.0000E-02  1.0000E-02  1.0000E-02
       1.0000E-02  1.0000E-02  1.0000E-02  1.0000E-02  1.0000E-02  1.0000E-02  1.0000E-02  1.0000E-02  1.0000E-02  1.0000E-02
       1.0000E-02  1.0000E-02  1.0000E-02  1.0000E-02  1.0000E-02  1.0000E-02
  23   1.0000E-02  1.0000E-02  1.0000E-02  1.0000E-02  1.0000E-02  1.0000E-02  1.0000E-02   0.000       0.000       0.000    
        0.000       0.000       0.000       0.000       0.000       0.000       0.000       0.000       0.000       0.000    
        0.000       0.000       0.000       0.000       0.000       0.000       0.000       0.000       0.000       0.000    
        0.000       0.000      1.0000E-02  1.0000E-02  1.0000E-02  1.0000E-02  1.0000E-02  1.0000E-02  1.0000E-02  1.0000E-02
       1.0000E-02  1.0000E-02  1.0000E-02  1.0000E-02  1.0000E-02  1.0000E-02  1.0000E-02  1.0000E-02  1.0000E-02  1.0000E-02
       1.0000E-02  1.0000E-02  1.0000E-02  1.0000E-02  1.0000E-02  1.0000E-02  1.0000E-02  1.0000E-02  1.0000E-02  1.0000E-02
       1.0000E-02  1.0000E-02  1.0000E-02  1.0000E-02  1.0000E-02  1.0000E-02  1.0000E-02  1.0000E-02  1.0000E-02  1.0000E-02
       1.0000E-02  1.0000E-02  1.0000E-02  1.0000E-02  1.0000E-02  1.0000E-02
  24   1.0000E-02  1.0000E-02  1.0000E-02  1.0000E-02  1.0000E-02  1.0000E-02  1.0000E-02  1.0000E-02  1.0000E-02  1.0000E-02
        0.000       0.000       0.000       0.000       0.000       0.000       0.000       0.000       0.000       0.000    
        0.000       0.000       0.000       0.000       0.000       0.000       0.000       0.000       0.000       0.000    
        0.000       0.000      1.0000E-02  1.0000E-02  1.0000E-02  1.0000E-02  1.0000E-02  1.0000E-02  1.0000E-02  1.0000E-02
       1.0000E-02  1.0000E-02  1.0000E-02  1.0000E-02  1.0000E-02  1.0000E-02  1.0000E-02  1.0000E-02  1.0000E-02  1.0000E-02
       1.0000E-02  1.0000E-02  1.0000E-02  1.0000E-02  1.0000E-02  1.0000E-02  1.0000E-02  1.0000E-02  1.0000E-02  1.0000E-02
       1.0000E-02  1.0000E-02  1.0000E-02  1.0000E-02  1.0000E-02  1.0000E-02  1.0000E-02  1.0000E-02  1.0000E-02  1.0000E-02
       1.0000E-02  1.0000E-02  1.0000E-02  1.0000E-02  1.0000E-02  1.0000E-02
  25   1.0000E-02  1.0000E-02  1.0000E-02  1.0000E-02  1.0000E-02  1.0000E-02  1.0000E-02  1.0000E-02  1.0000E-02  1.0000E-02
       1.0000E-02  1.0000E-02  1.0000E-02   0.000       0.000       0.000       0.000       0.000       0.000       0.000    
        0.000       0.000       0.000       0.000       0.000       0.000       0.000       0.000       0.000      1.0000E-02
       1.0000E-02  1.0000E-02  1.0000E-02  1.0000E-02  1.0000E-02  1.0000E-02  1.0000E-02  1.0000E-02  1.0000E-02  1.0000E-02
       1.0000E-02  1.0000E-02  1.0000E-02  1.0000E-02  1.0000E-02  1.0000E-02  1.0000E-02  1.0000E-02  1.0000E-02  1.0000E-02
       1.0000E-02  1.0000E-02  1.0000E-02  1.0000E-02  1.0000E-02  1.0000E-02  1.0000E-02  1.0000E-02  1.0000E-02  1.0000E-02
       1.0000E-02  1.0000E-02  1.0000E-02  1.0000E-02  1.0000E-02  1.0000E-02  1.0000E-02  1.0000E-02  1.0000E-02  1.0000E-02
       1.0000E-02  1.0000E-02  1.0000E-02  1.0000E-02  1.0000E-02  1.0000E-02
  26   1.0000E-02  1.0000E-02  1.0000E-02  1.0000E-02  1.0000E-02  1.0000E-02  1.0000E-02  1.0000E-02  1.0000E-02  1.0000E-02
       1.0000E-02  1.0000E-02  1.0000E-02  1.0000E-02  1.0000E-02  1.0000E-02  1.0000E-02   0.000       0.000       0.000    
        0.000       0.000       0.000       0.000       0.000       0.000      1.0000E-02  1.0000E-02  1.0000E-02  1.0000E-02
       1.0000E-02  1.0000E-02  1.0000E-02  1.0000E-02  1.0000E-02  1.0000E-02  1.0000E-02  1.0000E-02  1.0000E-02  1.0000E-02
       1.0000E-02  1.0000E-02  1.0000E-02  1.0000E-02  1.0000E-02  1.0000E-02  1.0000E-02  1.0000E-02  1.0000E-02  1.0000E-02
       1.0000E-02  1.0000E-02  1.0000E-02  1.0000E-02  1.0000E-02  1.0000E-02  1.0000E-02  1.0000E-02  1.0000E-02  1.0000E-02
       1.0000E-02  1.0000E-02  1.0000E-02  1.0000E-02  1.0000E-02  1.0000E-02  1.0000E-02  1.0000E-02  1.0000E-02  1.0000E-02
       1.0000E-02  1.0000E-02  1.0000E-02  1.0000E-02  1.0000E-02  1.0000E-02
  27   1.0000E-02  1.0000E-02  1.0000E-02  1.0000E-02  1.0000E-02  1.0000E-02  1.0000E-02  1.0000E-02  1.0000E-02  1.0000E-02
       1.0000E-02  1.0000E-02  1.0000E-02  1.0000E-02  1.0000E-02  1.0000E-02  1.0000E-02  1.0000E-02  1.0000E-02  1.0000E-02
       1.0000E-02  1.0000E-02  1.0000E-02  1.0000E-02  1.0000E-02  1.0000E-02  1.0000E-02  1.0000E-02  1.0000E-02  1.0000E-02
       1.0000E-02  1.0000E-02  1.0000E-02  1.0000E-02  1.0000E-02  1.0000E-02  1.0000E-02  1.0000E-02  1.0000E-02  1.0000E-02
       1.0000E-02  1.0000E-02  1.0000E-02  1.0000E-02  1.0000E-02  1.0000E-02  1.0000E-02  1.0000E-02  1.0000E-02  1.0000E-02
       1.0000E-02  1.0000E-02  1.0000E-02  1.0000E-02  1.0000E-02  1.0000E-02  1.0000E-02  1.0000E-02  1.0000E-02  1.0000E-02
       1.0000E-02  1.0000E-02  1.0000E-02  1.0000E-02  1.0000E-02  1.0000E-02  1.0000E-02  1.0000E-02  1.0000E-02  1.0000E-02
       1.0000E-02  1.0000E-02  1.0000E-02  1.0000E-02  1.0000E-02   0.000    
  28   1.0000E-02  1.0000E-02  1.0000E-02  1.0000E-02  1.0000E-02  1.0000E-02  1.0000E-02  1.0000E-02  1.0000E-02  1.0000E-02
       1.0000E-02  1.0000E-02  1.0000E-02  1.0000E-02  1.0000E-02  1.0000E-02  1.0000E-02  1.0000E-02  1.0000E-02  1.0000E-02
       1.0000E-02  1.0000E-02  1.0000E-02  1.0000E-02  1.0000E-02  1.0000E-02  1.0000E-02  1.0000E-02  1.0000E-02  1.0000E-02
       1.0000E-02  1.0000E-02  1.0000E-02  1.0000E-02  1.0000E-02  1.0000E-02  1.0000E-02  1.0000E-02  1.0000E-02  1.0000E-02
       1.0000E-02  1.0000E-02  1.0000E-02  1.0000E-02  1.0000E-02  1.0000E-02  1.0000E-02  1.0000E-02  1.0000E-02  1.0000E-02
       1.0000E-02  1.0000E-02  1.0000E-02  1.0000E-02  1.0000E-02  1.0000E-02  1.0000E-02  1.0000E-02  1.0000E-02  1.0000E-02
       1.0000E-02  1.0000E-02  1.0000E-02  1.0000E-02  1.0000E-02  1.0000E-02  1.0000E-02  1.0000E-02  1.0000E-02  1.0000E-02
       1.0000E-02  1.0000E-02  1.0000E-02  1.0000E-02  1.0000E-02   0.000    
  29   1.0000E-02  1.0000E-02  1.0000E-02  1.0000E-02  1.0000E-02  1.0000E-02  1.0000E-02  1.0000E-02  1.0000E-02  1.0000E-02
       1.0000E-02  1.0000E-02  1.0000E-02  1.0000E-02  1.0000E-02  1.0000E-02  1.0000E-02  1.0000E-02  1.0000E-02  1.0000E-02
       1.0000E-02  1.0000E-02  1.0000E-02  1.0000E-02  1.0000E-02  1.0000E-02  1.0000E-02  1.0000E-02  1.0000E-02  1.0000E-02
       1.0000E-02  1.0000E-02  1.0000E-02  1.0000E-02  1.0000E-02  1.0000E-02  1.0000E-02  1.0000E-02  1.0000E-02  1.0000E-02
       1.0000E-02  1.0000E-02  1.0000E-02  1.0000E-02  1.0000E-02  1.0000E-02  1.0000E-02  1.0000E-02  1.0000E-02  1.0000E-02
       1.0000E-02  1.0000E-02  1.0000E-02  1.0000E-02  1.0000E-02  1.0000E-02  1.0000E-02  1.0000E-02  1.0000E-02  1.0000E-02
       1.0000E-02  1.0000E-02  1.0000E-02  1.0000E-02  1.0000E-02  1.0000E-02  1.0000E-02  1.0000E-02  1.0000E-02  1.0000E-02
       1.0000E-02  1.0000E-02  1.0000E-02  1.0000E-02  1.0000E-02   0.000    
  30   1.0000E-02  1.0000E-02  1.0000E-02  1.0000E-02  1.0000E-02  1.0000E-02  1.0000E-02  1.0000E-02  1.0000E-02  1.0000E-02
       1.0000E-02  1.0000E-02  1.0000E-02  1.0000E-02  1.0000E-02  1.0000E-02  1.0000E-02  1.0000E-02  1.0000E-02  1.0000E-02
       1.0000E-02  1.0000E-02  1.0000E-02  1.0000E-02  1.0000E-02  1.0000E-02  1.0000E-02  1.0000E-02  1.0000E-02  1.0000E-02
       1.0000E-02  1.0000E-02  1.0000E-02  1.0000E-02  1.0000E-02  1.0000E-02  1.0000E-02  1.0000E-02  1.0000E-02  1.0000E-02
       1.0000E-02  1.0000E-02  1.0000E-02  1.0000E-02  1.0000E-02  1.0000E-02  1.0000E-02  1.0000E-02  1.0000E-02  1.0000E-02
       1.0000E-02  1.0000E-02  1.0000E-02  1.0000E-02  1.0000E-02  1.0000E-02  1.0000E-02  1.0000E-02  1.0000E-02  1.0000E-02
       1.0000E-02  1.0000E-02  1.0000E-02  1.0000E-02  1.0000E-02  1.0000E-02  1.0000E-02  1.0000E-02  1.0000E-02  1.0000E-02
       1.0000E-02  1.0000E-02  1.0000E-02  1.0000E-02  1.0000E-02   0.000    
  31   1.0000E-02  1.0000E-02  1.0000E-02  1.0000E-02  1.0000E-02  1.0000E-02  1.0000E-02  1.0000E-02  1.0000E-02  1.0000E-02
       1.0000E-02  1.0000E-02  1.0000E-02  1.0000E-02  1.0000E-02  1.0000E-02  1.0000E-02  1.0000E-02  1.0000E-02  1.0000E-02
       1.0000E-02  1.0000E-02  1.0000E-02  1.0000E-02  1.0000E-02  1.0000E-02  1.0000E-02  1.0000E-02  1.0000E-02  1.0000E-02
       1.0000E-02  1.0000E-02  1.0000E-02  1.0000E-02  1.0000E-02  1.0000E-02  1.0000E-02  1.0000E-02  1.0000E-02  1.0000E-02
       1.0000E-02  1.0000E-02  1.0000E-02  1.0000E-02  1.0000E-02  1.0000E-02  1.0000E-02  1.0000E-02  1.0000E-02  1.0000E-02
       1.0000E-02  1.0000E-02  1.0000E-02  1.0000E-02  1.0000E-02  1.0000E-02  1.0000E-02  1.0000E-02  1.0000E-02  1.0000E-02
       1.0000E-02  1.0000E-02  1.0000E-02  1.0000E-02  1.0000E-02  1.0000E-02  1.0000E-02  1.0000E-02  1.0000E-02  1.0000E-02
       1.0000E-02  1.0000E-02  1.0000E-02  1.0000E-02   0.000       0.000    
  32    0.000      1.0000E-02  1.0000E-02  1.0000E-02  1.0000E-02  1.0000E-02  1.0000E-02  1.0000E-02  1.0000E-02  1.0000E-02
       1.0000E-02  1.0000E-02  1.0000E-02  1.0000E-02  1.0000E-02  1.0000E-02  1.0000E-02  1.0000E-02  1.0000E-02  1.0000E-02
       1.0000E-02  1.0000E-02  1.0000E-02  1.0000E-02  1.0000E-02  1.0000E-02  1.0000E-02  1.0000E-02  1.0000E-02  1.0000E-02
       1.0000E-02  1.0000E-02  1.0000E-02  1.0000E-02  1.0000E-02  1.0000E-02  1.0000E-02  1.0000E-02  1.0000E-02  1.0000E-02
       1.0000E-02  1.0000E-02  1.0000E-02  1.0000E-02  1.0000E-02  1.0000E-02  1.0000E-02  1.0000E-02  1.0000E-02  1.0000E-02
       1.0000E-02  1.0000E-02  1.0000E-02  1.0000E-02  1.0000E-02  1.0000E-02  1.0000E-02  1.0000E-02  1.0000E-02  1.0000E-02
       1.0000E-02  1.0000E-02  1.0000E-02  1.0000E-02  1.0000E-02  1.0000E-02  1.0000E-02  1.0000E-02  1.0000E-02  1.0000E-02
       1.0000E-02  1.0000E-02  1.0000E-02  1.0000E-02   0.000       0.000    
  33    0.000       0.000       0.000      1.0000E-02  1.0000E-02  1.0000E-02  1.0000E-02  1.0000E-02  1.0000E-02  1.0000E-02
       1.0000E-02  1.0000E-02  1.0000E-02  1.0000E-02  1.0000E-02  1.0000E-02  1.0000E-02  1.0000E-02  1.0000E-02  1.0000E-02
       1.0000E-02  1.0000E-02  1.0000E-02  1.0000E-02  1.0000E-02  1.0000E-02  1.0000E-02  1.0000E-02  1.0000E-02  1.0000E-02
       1.0000E-02  1.0000E-02  1.0000E-02  1.0000E-02  1.0000E-02  1.0000E-02  1.0000E-02  1.0000E-02  1.0000E-02  1.0000E-02
       1.0000E-02  1.0000E-02  1.0000E-02  1.0000E-02  1.0000E-02  1.0000E-02  1.0000E-02  1.0000E-02  1.0000E-02  1.0000E-02
       1.0000E-02  1.0000E-02  1.0000E-02  1.0000E-02  1.0000E-02  1.0000E-02  1.0000E-02  1.0000E-02  1.0000E-02  1.0000E-02
       1.0000E-02  1.0000E-02  1.0000E-02  1.0000E-02  1.0000E-02  1.0000E-02  1.0000E-02  1.0000E-02  1.0000E-02  1.0000E-02
       1.0000E-02  1.0000E-02  1.0000E-02   0.000       0.000       0.000    
  34    0.000       0.000       0.000       0.000       0.000      1.0000E-02  1.0000E-02  1.0000E-02  1.0000E-02  1.0000E-02
       1.0000E-02  1.0000E-02  1.0000E-02  1.0000E-02  1.0000E-02  1.0000E-02  1.0000E-02  1.0000E-02  1.0000E-02  1.0000E-02
       1.0000E-02  1.0000E-02  1.0000E-02  1.0000E-02  1.0000E-02  1.0000E-02  1.0000E-02  1.0000E-02  1.0000E-02  1.0000E-02
       1.0000E-02  1.0000E-02  1.0000E-02  1.0000E-02  1.0000E-02  1.0000E-02  1.0000E-02  1.0000E-02  1.0000E-02  1.0000E-02
       1.0000E-02  1.0000E-02  1.0000E-02  1.0000E-02  1.0000E-02  1.0000E-02  1.0000E-02  1.0000E-02  1.0000E-02  1.0000E-02
       1.0000E-02  1.0000E-02  1.0000E-02  1.0000E-02  1.0000E-02  1.0000E-02  1.0000E-02  1.0000E-02  1.0000E-02  1.0000E-02
       1.0000E-02  1.0000E-02  1.0000E-02  1.0000E-02  1.0000E-02  1.0000E-02  1.0000E-02  1.0000E-02  1.0000E-02  1.0000E-02
       1.0000E-02  1.0000E-02  1.0000E-02   0.000       0.000       0.000    
  35    0.000       0.000       0.000       0.000       0.000       0.000      1.0000E-02  1.0000E-02  1.0000E-02  1.0000E-02
       1.0000E-02  1.0000E-02  1.0000E-02  1.0000E-02  1.0000E-02  1.0000E-02  1.0000E-02  1.0000E-02  1.0000E-02  1.0000E-02
       1.0000E-02  1.0000E-02  1.0000E-02  1.0000E-02  1.0000E-02  1.0000E-02  1.0000E-02  1.0000E-02  1.0000E-02  1.0000E-02
       1.0000E-02  1.0000E-02  1.0000E-02  1.0000E-02  1.0000E-02  1.0000E-02  1.0000E-02  1.0000E-02  1.0000E-02  1.0000E-02
       1.0000E-02  1.0000E-02  1.0000E-02  1.0000E-02  1.0000E-02  1.0000E-02  1.0000E-02  1.0000E-02  1.0000E-02  1.0000E-02
       1.0000E-02  1.0000E-02  1.0000E-02  1.0000E-02  1.0000E-02  1.0000E-02  1.0000E-02  1.0000E-02  1.0000E-02  1.0000E-02
       1.0000E-02  1.0000E-02  1.0000E-02  1.0000E-02  1.0000E-02  1.0000E-02  1.0000E-02  1.0000E-02  1.0000E-02  1.0000E-02
       1.0000E-02  1.0000E-02   0.000       0.000       0.000       0.000    
  36    0.000       0.000       0.000       0.000       0.000       0.000       0.000       0.000      1.0000E-02  1.0000E-02
       1.0000E-02  1.0000E-02  1.0000E-02  1.0000E-02  1.0000E-02  1.0000E-02  1.0000E-02  1.0000E-02  1.0000E-02  1.0000E-02
       1.0000E-02  1.0000E-02  1.0000E-02  1.0000E-02  1.0000E-02  1.0000E-02  1.0000E-02  1.0000E-02  1.0000E-02  1.0000E-02
       1.0000E-02  1.0000E-02  1.0000E-02  1.0000E-02  1.0000E-02  1.0000E-02  1.0000E-02  1.0000E-02  1.0000E-02  1.0000E-02
       1.0000E-02  1.0000E-02  1.0000E-02  1.0000E-02  1.0000E-02  1.0000E-02  1.0000E-02  1.0000E-02  1.0000E-02  1.0000E-02
       1.0000E-02  1.0000E-02  1.0000E-02  1.0000E-02  1.0000E-02  1.0000E-02  1.0000E-02  1.0000E-02  1.0000E-02  1.0000E-02
       1.0000E-02  1.0000E-02  1.0000E-02  1.0000E-02  1.0000E-02  1.0000E-02  1.0000E-02  1.0000E-02  1.0000E-02  1.0000E-02
       1.0000E-02  1.0000E-02   0.000       0.000       0.000       0.000    
  37   1.0000E-02  1.0000E-02  1.0000E-02   0.000       0.000       0.000       0.000       0.000       0.000       0.000    
       1.0000E-02  1.0000E-02  1.0000E-02  1.0000E-02  1.0000E-02  1.0000E-02  1.0000E-02  1.0000E-02  1.0000E-02  1.0000E-02
       1.0000E-02  1.0000E-02  1.0000E-02  1.0000E-02  1.0000E-02  1.0000E-02  1.0000E-02  1.0000E-02  1.0000E-02  1.0000E-02
       1.0000E-02  1.0000E-02  1.0000E-02  1.0000E-02  1.0000E-02  1.0000E-02  1.0000E-02  1.0000E-02  1.0000E-02  1.0000E-02
       1.0000E-02  1.0000E-02  1.0000E-02  1.0000E-02  1.0000E-02  1.0000E-02  1.0000E-02  1.0000E-02  1.0000E-02  1.0000E-02
       1.0000E-02  1.0000E-02  1.0000E-02  1.0000E-02  1.0000E-02  1.0000E-02  1.0000E-02  1.0000E-02  1.0000E-02  1.0000E-02
       1.0000E-02  1.0000E-02  1.0000E-02  1.0000E-02  1.0000E-02  1.0000E-02  1.0000E-02  1.0000E-02  1.0000E-02  1.0000E-02
       1.0000E-02  1.0000E-02   0.000       0.000       0.000       0.000    
  38   1.0000E-02  1.0000E-02  1.0000E-02  1.0000E-02  1.0000E-02  1.0000E-02  1.0000E-02   0.000       0.000       0.000    
        0.000      1.0000E-02  1.0000E-02  1.0000E-02  1.0000E-02  1.0000E-02  1.0000E-02  1.0000E-02  1.0000E-02  1.0000E-02
       1.0000E-02  1.0000E-02  1.0000E-02  1.0000E-02  1.0000E-02  1.0000E-02  1.0000E-02  1.0000E-02  1.0000E-02  1.0000E-02
       1.0000E-02  1.0000E-02  1.0000E-02  1.0000E-02  1.0000E-02  1.0000E-02  1.0000E-02  1.0000E-02  1.0000E-02  1.0000E-02
       1.0000E-02  1.0000E-02  1.0000E-02  1.0000E-02  1.0000E-02  1.0000E-02  1.0000E-02  1.0000E-02  1.0000E-02  1.0000E-02
       1.0000E-02  1.0000E-02  1.0000E-02  1.0000E-02  1.0000E-02  1.0000E-02  1.0000E-02  1.0000E-02  1.0000E-02  1.0000E-02
       1.0000E-02  1.0000E-02  1.0000E-02  1.0000E-02  1.0000E-02  1.0000E-02  1.0000E-02  1.0000E-02  1.0000E-02   0.000    
       1.0000E-02  1.0000E-02   0.000       0.000       0.000       0.000    
  39   1.0000E-02  1.0000E-02  1.0000E-02  1.0000E-02  1.0000E-02  1.0000E-02  1.0000E-02  1.0000E-02  1.0000E-02  1.0000E-02
       1.0000E-02   0.000       0.000      1.0000E-02  1.0000E-02  1.0000E-02  1.0000E-02  1.0000E-02  1.0000E-02  1.0000E-02
       1.0000E-02  1.0000E-02  1.0000E-02  1.0000E-02  1.0000E-02  1.0000E-02  1.0000E-02  1.0000E-02  1.0000E-02  1.0000E-02
       1.0000E-02  1.0000E-02  1.0000E-02  1.0000E-02  1.0000E-02  1.0000E-02  1.0000E-02  1.0000E-02  1.0000E-02  1.0000E-02
       1.0000E-02  1.0000E-02  1.0000E-02  1.0000E-02  1.0000E-02  1.0000E-02  1.0000E-02  1.0000E-02  1.0000E-02  1.0000E-02
       1.0000E-02  1.0000E-02  1.0000E-02  1.0000E-02  1.0000E-02  1.0000E-02  1.0000E-02  1.0000E-02  1.0000E-02  1.0000E-02
       1.0000E-02  1.0000E-02  1.0000E-02  1.0000E-02  1.0000E-02  1.0000E-02  1.0000E-02  1.0000E-02  1.0000E-02  1.0000E-02
       1.0000E-02   0.000       0.000       0.000       0.000       0.000    
  40   1.0000E-02  1.0000E-02  1.0000E-02  1.0000E-02  1.0000E-02  1.0000E-02  1.0000E-02  1.0000E-02  1.0000E-02  1.0000E-02
       1.0000E-02  1.0000E-02  1.0000E-02  1.0000E-02  1.0000E-02  1.0000E-02  1.0000E-02  1.0000E-02  1.0000E-02  1.0000E-02
       1.0000E-02  1.0000E-02  1.0000E-02  1.0000E-02  1.0000E-02  1.0000E-02  1.0000E-02  1.0000E-02  1.0000E-02  1.0000E-02
       1.0000E-02  1.0000E-02  1.0000E-02  1.0000E-02  1.0000E-02  1.0000E-02  1.0000E-02  1.0000E-02  1.0000E-02  1.0000E-02
       1.0000E-02  1.0000E-02  1.0000E-02  1.0000E-02  1.0000E-02  1.0000E-02  1.0000E-02  1.0000E-02  1.0000E-02  1.0000E-02
       1.0000E-02  1.0000E-02  1.0000E-02  1.0000E-02  1.0000E-02  1.0000E-02  1.0000E-02  1.0000E-02  1.0000E-02  1.0000E-02
       1.0000E-02  1.0000E-02  1.0000E-02  1.0000E-02  1.0000E-02  1.0000E-02  1.0000E-02  1.0000E-02  1.0000E-02  1.0000E-02
       1.0000E-02   0.000       0.000       0.000       0.000       0.000    
  41   1.0000E-02  1.0000E-02  1.0000E-02  1.0000E-02  1.0000E-02  1.0000E-02  1.0000E-02  1.0000E-02  1.0000E-02  1.0000E-02
       1.0000E-02  1.0000E-02  1.0000E-02  1.0000E-02  1.0000E-02  1.0000E-02  1.0000E-02  1.0000E-02  1.0000E-02  1.0000E-02
       1.0000E-02  1.0000E-02  1.0000E-02  1.0000E-02  1.0000E-02  1.0000E-02  1.0000E-02  1.0000E-02  1.0000E-02  1.0000E-02
       1.0000E-02  1.0000E-02  1.0000E-02  1.0000E-02  1.0000E-02  1.0000E-02  1.0000E-02  1.0000E-02  1.0000E-02  1.0000E-02
       1.0000E-02  1.0000E-02  1.0000E-02  1.0000E-02  1.0000E-02  1.0000E-02  1.0000E-02  1.0000E-02  1.0000E-02  1.0000E-02
       1.0000E-02  1.0000E-02  1.0000E-02  1.0000E-02  1.0000E-02  1.0000E-02  1.0000E-02  1.0000E-02  1.0000E-02  1.0000E-02
       1.0000E-02  1.0000E-02  1.0000E-02  1.0000E-02  1.0000E-02  1.0000E-02  1.0000E-02  1.0000E-02  1.0000E-02  1.0000E-02
       1.0000E-02  1.0000E-02   0.000       0.000       0.000       0.000    
  42   1.0000E-02  1.0000E-02  1.0000E-02  1.0000E-02  1.0000E-02  1.0000E-02  1.0000E-02  1.0000E-02  1.0000E-02  1.0000E-02
       1.0000E-02  1.0000E-02  1.0000E-02  1.0000E-02  1.0000E-02  1.0000E-02  1.0000E-02  1.0000E-02  1.0000E-02  1.0000E-02
       1.0000E-02  1.0000E-02  1.0000E-02  1.0000E-02  1.0000E-02  1.0000E-02  1.0000E-02  1.0000E-02  1.0000E-02  1.0000E-02
       1.0000E-02  1.0000E-02  1.0000E-02  1.0000E-02  1.0000E-02  1.0000E-02  1.0000E-02  1.0000E-02  1.0000E-02  1.0000E-02
       1.0000E-02  1.0000E-02  1.0000E-02  1.0000E-02  1.0000E-02  1.0000E-02  1.0000E-02  1.0000E-02  1.0000E-02  1.0000E-02
       1.0000E-02  1.0000E-02  1.0000E-02  1.0000E-02  1.0000E-02  1.0000E-02  1.0000E-02  1.0000E-02  1.0000E-02  1.0000E-02
       1.0000E-02  1.0000E-02  1.0000E-02  1.0000E-02  1.0000E-02  1.0000E-02  1.0000E-02  1.0000E-02  1.0000E-02  1.0000E-02
       1.0000E-02  1.0000E-02   0.000       0.000       0.000       0.000    
  43   1.0000E-02  1.0000E-02  1.0000E-02  1.0000E-02  1.0000E-02  1.0000E-02  1.0000E-02  1.0000E-02  1.0000E-02  1.0000E-02
       1.0000E-02  1.0000E-02  1.0000E-02  1.0000E-02  1.0000E-02  1.0000E-02  1.0000E-02  1.0000E-02  1.0000E-02  1.0000E-02
       1.0000E-02  1.0000E-02  1.0000E-02  1.0000E-02  1.0000E-02  1.0000E-02  1.0000E-02  1.0000E-02  1.0000E-02  1.0000E-02
       1.0000E-02  1.0000E-02  1.0000E-02  1.0000E-02  1.0000E-02  1.0000E-02  1.0000E-02  1.0000E-02  1.0000E-02  1.0000E-02
       1.0000E-02  1.0000E-02  1.0000E-02  1.0000E-02  1.0000E-02  1.0000E-02  1.0000E-02  1.0000E-02  1.0000E-02  1.0000E-02
       1.0000E-02  1.0000E-02  1.0000E-02  1.0000E-02  1.0000E-02  1.0000E-02  1.0000E-02  1.0000E-02  1.0000E-02  1.0000E-02
       1.0000E-02  1.0000E-02  1.0000E-02  1.0000E-02  1.0000E-02  1.0000E-02  1.0000E-02  1.0000E-02  1.0000E-02  1.0000E-02
       1.0000E-02  1.0000E-02  1.0000E-02   0.000       0.000       0.000    
  44   1.0000E-02  1.0000E-02  1.0000E-02  1.0000E-02  1.0000E-02  1.0000E-02  1.0000E-02  1.0000E-02  1.0000E-02  1.0000E-02
       1.0000E-02  1.0000E-02  1.0000E-02  1.0000E-02  1.0000E-02  1.0000E-02  1.0000E-02  1.0000E-02  1.0000E-02  1.0000E-02
       1.0000E-02  1.0000E-02  1.0000E-02  1.0000E-02  1.0000E-02  1.0000E-02  1.0000E-02  1.0000E-02  1.0000E-02  1.0000E-02
       1.0000E-02  1.0000E-02  1.0000E-02  1.0000E-02  1.0000E-02  1.0000E-02  1.0000E-02  1.0000E-02  1.0000E-02  1.0000E-02
       1.0000E-02  1.0000E-02  1.0000E-02  1.0000E-02  1.0000E-02  1.0000E-02  1.0000E-02  1.0000E-02  1.0000E-02  1.0000E-02
       1.0000E-02  1.0000E-02  1.0000E-02  1.0000E-02  1.0000E-02  1.0000E-02  1.0000E-02  1.0000E-02  1.0000E-02  1.0000E-02
       1.0000E-02  1.0000E-02  1.0000E-02  1.0000E-02  1.0000E-02  1.0000E-02  1.0000E-02  1.0000E-02  1.0000E-02  1.0000E-02
       1.0000E-02  1.0000E-02  1.0000E-02  1.0000E-02   0.000       0.000    
  45   1.0000E-02  1.0000E-02  1.0000E-02  1.0000E-02  1.0000E-02  1.0000E-02  1.0000E-02  1.0000E-02  1.0000E-02  1.0000E-02
       1.0000E-02  1.0000E-02  1.0000E-02  1.0000E-02  1.0000E-02  1.0000E-02  1.0000E-02  1.0000E-02  1.0000E-02  1.0000E-02
       1.0000E-02  1.0000E-02  1.0000E-02  1.0000E-02  1.0000E-02  1.0000E-02  1.0000E-02  1.0000E-02  1.0000E-02  1.0000E-02
       1.0000E-02  1.0000E-02  1.0000E-02  1.0000E-02  1.0000E-02  1.0000E-02  1.0000E-02  1.0000E-02  1.0000E-02  1.0000E-02
       1.0000E-02  1.0000E-02  1.0000E-02  1.0000E-02  1.0000E-02  1.0000E-02  1.0000E-02  1.0000E-02  1.0000E-02  1.0000E-02
       1.0000E-02  1.0000E-02  1.0000E-02  1.0000E-02  1.0000E-02  1.0000E-02  1.0000E-02  1.0000E-02  1.0000E-02  1.0000E-02
       1.0000E-02  1.0000E-02  1.0000E-02  1.0000E-02  1.0000E-02  1.0000E-02  1.0000E-02  1.0000E-02  1.0000E-02  1.0000E-02
       1.0000E-02  1.0000E-02  1.0000E-02  1.0000E-02  1.0000E-02   0.000    
  46   1.0000E-02  1.0000E-02  1.0000E-02  1.0000E-02  1.0000E-02  1.0000E-02  1.0000E-02  1.0000E-02  1.0000E-02  1.0000E-02
       1.0000E-02  1.0000E-02  1.0000E-02  1.0000E-02  1.0000E-02  1.0000E-02  1.0000E-02  1.0000E-02  1.0000E-02  1.0000E-02
       1.0000E-02  1.0000E-02  1.0000E-02  1.0000E-02  1.0000E-02  1.0000E-02  1.0000E-02  1.0000E-02  1.0000E-02  1.0000E-02
       1.0000E-02  1.0000E-02  1.0000E-02  1.0000E-02  1.0000E-02  1.0000E-02  1.0000E-02  1.0000E-02  1.0000E-02  1.0000E-02
       1.0000E-02  1.0000E-02  1.0000E-02  1.0000E-02  1.0000E-02  1.0000E-02  1.0000E-02  1.0000E-02  1.0000E-02  1.0000E-02
       1.0000E-02  1.0000E-02  1.0000E-02  1.0000E-02  1.0000E-02  1.0000E-02  1.0000E-02  1.0000E-02  1.0000E-02  1.0000E-02
       1.0000E-02  1.0000E-02  1.0000E-02  1.0000E-02  1.0000E-02  1.0000E-02  1.0000E-02  1.0000E-02  1.0000E-02  1.0000E-02
       1.0000E-02  1.0000E-02  1.0000E-02  1.0000E-02  1.0000E-02  1.0000E-02
  47   1.0000E-02  1.0000E-02  1.0000E-02  1.0000E-02  1.0000E-02  1.0000E-02  1.0000E-02  1.0000E-02  1.0000E-02  1.0000E-02
       1.0000E-02  1.0000E-02  1.0000E-02  1.0000E-02  1.0000E-02  1.0000E-02  1.0000E-02  1.0000E-02  1.0000E-02  1.0000E-02
       1.0000E-02  1.0000E-02  1.0000E-02  1.0000E-02  1.0000E-02  1.0000E-02  1.0000E-02  1.0000E-02  1.0000E-02  1.0000E-02
       1.0000E-02  1.0000E-02  1.0000E-02  1.0000E-02  1.0000E-02  1.0000E-02  1.0000E-02  1.0000E-02  1.0000E-02  1.0000E-02
       1.0000E-02  1.0000E-02  1.0000E-02  1.0000E-02  1.0000E-02  1.0000E-02  1.0000E-02  1.0000E-02  1.0000E-02  1.0000E-02
       1.0000E-02  1.0000E-02  1.0000E-02  1.0000E-02  1.0000E-02  1.0000E-02  1.0000E-02  1.0000E-02  1.0000E-02  1.0000E-02
       1.0000E-02  1.0000E-02  1.0000E-02  1.0000E-02  1.0000E-02  1.0000E-02  1.0000E-02  1.0000E-02  1.0000E-02  1.0000E-02
       1.0000E-02  1.0000E-02  1.0000E-02  1.0000E-02  1.0000E-02  1.0000E-02
  48   1.0000E-02  1.0000E-02  1.0000E-02  1.0000E-02  1.0000E-02  1.0000E-02  1.0000E-02  1.0000E-02  1.0000E-02  1.0000E-02
       1.0000E-02  1.0000E-02  1.0000E-02  1.0000E-02  1.0000E-02  1.0000E-02  1.0000E-02  1.0000E-02  1.0000E-02  1.0000E-02
       1.0000E-02  1.0000E-02  1.0000E-02  1.0000E-02  1.0000E-02  1.0000E-02  1.0000E-02  1.0000E-02  1.0000E-02  1.0000E-02
       1.0000E-02  1.0000E-02  1.0000E-02  1.0000E-02  1.0000E-02  1.0000E-02  1.0000E-02  1.0000E-02  1.0000E-02  1.0000E-02
       1.0000E-02  1.0000E-02  1.0000E-02  1.0000E-02  1.0000E-02  1.0000E-02  1.0000E-02  1.0000E-02  1.0000E-02  1.0000E-02
       1.0000E-02  1.0000E-02  1.0000E-02  1.0000E-02  1.0000E-02  1.0000E-02  1.0000E-02  1.0000E-02  1.0000E-02  1.0000E-02
       1.0000E-02  1.0000E-02  1.0000E-02  1.0000E-02  1.0000E-02  1.0000E-02  1.0000E-02  1.0000E-02  1.0000E-02  1.0000E-02
       1.0000E-02  1.0000E-02  1.0000E-02  1.0000E-02  1.0000E-02  1.0000E-02
  49   1.0000E-02  1.0000E-02  1.0000E-02  1.0000E-02  1.0000E-02  1.0000E-02  1.0000E-02  1.0000E-02  1.0000E-02  1.0000E-02
       1.0000E-02  1.0000E-02  1.0000E-02  1.0000E-02  1.0000E-02  1.0000E-02  1.0000E-02  1.0000E-02  1.0000E-02  1.0000E-02
       1.0000E-02  1.0000E-02  1.0000E-02  1.0000E-02  1.0000E-02  1.0000E-02  1.0000E-02  1.0000E-02  1.0000E-02  1.0000E-02
       1.0000E-02  1.0000E-02  1.0000E-02  1.0000E-02  1.0000E-02  1.0000E-02  1.0000E-02  1.0000E-02  1.0000E-02  1.0000E-02
       1.0000E-02  1.0000E-02  1.0000E-02  1.0000E-02  1.0000E-02  1.0000E-02  1.0000E-02  1.0000E-02  1.0000E-02  1.0000E-02
       1.0000E-02  1.0000E-02  1.0000E-02  1.0000E-02  1.0000E-02  1.0000E-02  1.0000E-02  1.0000E-02  1.0000E-02  1.0000E-02
       1.0000E-02  1.0000E-02  1.0000E-02  1.0000E-02  1.0000E-02  1.0000E-02  1.0000E-02  1.0000E-02  1.0000E-02  1.0000E-02
       1.0000E-02  1.0000E-02  1.0000E-02  1.0000E-02  1.0000E-02  1.0000E-02
  50   1.0000E-02  1.0000E-02  1.0000E-02  1.0000E-02  1.0000E-02  1.0000E-02  1.0000E-02  1.0000E-02  1.0000E-02  1.0000E-02
       1.0000E-02  1.0000E-02  1.0000E-02  1.0000E-02  1.0000E-02  1.0000E-02  1.0000E-02  1.0000E-02  1.0000E-02  1.0000E-02
       1.0000E-02  1.0000E-02  1.0000E-02  1.0000E-02  1.0000E-02  1.0000E-02  1.0000E-02  1.0000E-02  1.0000E-02  1.0000E-02
       1.0000E-02  1.0000E-02  1.0000E-02  1.0000E-02  1.0000E-02  1.0000E-02  1.0000E-02  1.0000E-02  1.0000E-02  1.0000E-02
       1.0000E-02  1.0000E-02  1.0000E-02  1.0000E-02  1.0000E-02  1.0000E-02  1.0000E-02  1.0000E-02  1.0000E-02  1.0000E-02
       1.0000E-02  1.0000E-02  1.0000E-02  1.0000E-02  1.0000E-02  1.0000E-02  1.0000E-02  1.0000E-02  1.0000E-02  1.0000E-02
       1.0000E-02  1.0000E-02  1.0000E-02  1.0000E-02  1.0000E-02  1.0000E-02  1.0000E-02  1.0000E-02  1.0000E-02  1.0000E-02
       1.0000E-02  1.0000E-02  1.0000E-02  1.0000E-02  1.0000E-02  1.0000E-02
  51   1.0000E-02  1.0000E-02  1.0000E-02  1.0000E-02  1.0000E-02  1.0000E-02  1.0000E-02  1.0000E-02  1.0000E-02  1.0000E-02
       1.0000E-02  1.0000E-02  1.0000E-02  1.0000E-02  1.0000E-02  1.0000E-02  1.0000E-02  1.0000E-02  1.0000E-02  1.0000E-02
       1.0000E-02  1.0000E-02  1.0000E-02  1.0000E-02  1.0000E-02  1.0000E-02  1.0000E-02  1.0000E-02  1.0000E-02  1.0000E-02
       1.0000E-02  1.0000E-02  1.0000E-02  1.0000E-02  1.0000E-02  1.0000E-02  1.0000E-02  1.0000E-02  1.0000E-02  1.0000E-02
       1.0000E-02  1.0000E-02  1.0000E-02  1.0000E-02  1.0000E-02  1.0000E-02  1.0000E-02  1.0000E-02  1.0000E-02  1.0000E-02
       1.0000E-02  1.0000E-02  1.0000E-02  1.0000E-02  1.0000E-02  1.0000E-02  1.0000E-02  1.0000E-02  1.0000E-02  1.0000E-02
       1.0000E-02  1.0000E-02  1.0000E-02  1.0000E-02  1.0000E-02  1.0000E-02  1.0000E-02  1.0000E-02  1.0000E-02  1.0000E-02
       1.0000E-02  1.0000E-02  1.0000E-02  1.0000E-02  1.0000E-02  1.0000E-02
  52   1.0000E-02  1.0000E-02  1.0000E-02  1.0000E-02  1.0000E-02  1.0000E-02  1.0000E-02  1.0000E-02  1.0000E-02  1.0000E-02
       1.0000E-02  1.0000E-02  1.0000E-02  1.0000E-02  1.0000E-02  1.0000E-02  1.0000E-02  1.0000E-02  1.0000E-02  1.0000E-02
       1.0000E-02  1.0000E-02  1.0000E-02  1.0000E-02  1.0000E-02  1.0000E-02  1.0000E-02  1.0000E-02  1.0000E-02  1.0000E-02
       1.0000E-02  1.0000E-02  1.0000E-02  1.0000E-02  1.0000E-02  1.0000E-02  1.0000E-02  1.0000E-02  1.0000E-02  1.0000E-02
       1.0000E-02  1.0000E-02  1.0000E-02  1.0000E-02  1.0000E-02  1.0000E-02  1.0000E-02  1.0000E-02  1.0000E-02  1.0000E-02
       1.0000E-02  1.0000E-02  1.0000E-02  1.0000E-02  1.0000E-02  1.0000E-02  1.0000E-02  1.0000E-02  1.0000E-02  1.0000E-02
       1.0000E-02  1.0000E-02  1.0000E-02  1.0000E-02  1.0000E-02  1.0000E-02  1.0000E-02  1.0000E-02  1.0000E-02  1.0000E-02
       1.0000E-02  1.0000E-02  1.0000E-02  1.0000E-02  1.0000E-02  1.0000E-02
  53   1.0000E-02  1.0000E-02  1.0000E-02  1.0000E-02  1.0000E-02  1.0000E-02  1.0000E-02  1.0000E-02  1.0000E-02  1.0000E-02
       1.0000E-02  1.0000E-02  1.0000E-02  1.0000E-02  1.0000E-02  1.0000E-02  1.0000E-02  1.0000E-02  1.0000E-02  1.0000E-02
       1.0000E-02  1.0000E-02  1.0000E-02  1.0000E-02  1.0000E-02  1.0000E-02  1.0000E-02  1.0000E-02  1.0000E-02  1.0000E-02
       1.0000E-02  1.0000E-02  1.0000E-02  1.0000E-02  1.0000E-02  1.0000E-02  1.0000E-02  1.0000E-02  1.0000E-02  1.0000E-02
       1.0000E-02  1.0000E-02  1.0000E-02  1.0000E-02  1.0000E-02  1.0000E-02  1.0000E-02  1.0000E-02  1.0000E-02  1.0000E-02
       1.0000E-02  1.0000E-02  1.0000E-02  1.0000E-02  1.0000E-02  1.0000E-02  1.0000E-02  1.0000E-02  1.0000E-02  1.0000E-02
       1.0000E-02  1.0000E-02  1.0000E-02  1.0000E-02  1.0000E-02  1.0000E-02  1.0000E-02  1.0000E-02  1.0000E-02  1.0000E-02
       1.0000E-02  1.0000E-02  1.0000E-02  1.0000E-02  1.0000E-02  1.0000E-02
  54   1.0000E-02  1.0000E-02  1.0000E-02  1.0000E-02  1.0000E-02  1.0000E-02  1.0000E-02  1.0000E-02  1.0000E-02  1.0000E-02
       1.0000E-02  1.0000E-02  1.0000E-02  1.0000E-02  1.0000E-02  1.0000E-02  1.0000E-02  1.0000E-02  1.0000E-02  1.0000E-02
       1.0000E-02  1.0000E-02  1.0000E-02  1.0000E-02  1.0000E-02  1.0000E-02  1.0000E-02  1.0000E-02  1.0000E-02  1.0000E-02
       1.0000E-02  1.0000E-02  1.0000E-02  1.0000E-02  1.0000E-02  1.0000E-02  1.0000E-02  1.0000E-02  1.0000E-02  1.0000E-02
       1.0000E-02  1.0000E-02  1.0000E-02  1.0000E-02  1.0000E-02  1.0000E-02  1.0000E-02  1.0000E-02  1.0000E-02  1.0000E-02
       1.0000E-02  1.0000E-02  1.0000E-02  1.0000E-02  1.0000E-02  1.0000E-02  1.0000E-02  1.0000E-02  1.0000E-02  1.0000E-02
       1.0000E-02  1.0000E-02  1.0000E-02  1.0000E-02  1.0000E-02  1.0000E-02  1.0000E-02  1.0000E-02  1.0000E-02  1.0000E-02
       1.0000E-02  1.0000E-02  1.0000E-02  1.0000E-02  1.0000E-02  1.0000E-02
  55   1.0000E-02  1.0000E-02  1.0000E-02  1.0000E-02  1.0000E-02  1.0000E-02  1.0000E-02  1.0000E-02  1.0000E-02  1.0000E-02
       1.0000E-02  1.0000E-02  1.0000E-02  1.0000E-02  1.0000E-02  1.0000E-02  1.0000E-02  1.0000E-02  1.0000E-02  1.0000E-02
       1.0000E-02  1.0000E-02  1.0000E-02  1.0000E-02  1.0000E-02  1.0000E-02  1.0000E-02  1.0000E-02  1.0000E-02  1.0000E-02
       1.0000E-02  1.0000E-02  1.0000E-02  1.0000E-02  1.0000E-02  1.0000E-02  1.0000E-02  1.0000E-02  1.0000E-02  1.0000E-02
       1.0000E-02  1.0000E-02  1.0000E-02  1.0000E-02  1.0000E-02  1.0000E-02  1.0000E-02  1.0000E-02  1.0000E-02  1.0000E-02
       1.0000E-02  1.0000E-02  1.0000E-02  1.0000E-02  1.0000E-02  1.0000E-02  1.0000E-02  1.0000E-02  1.0000E-02  1.0000E-02
       1.0000E-02  1.0000E-02  1.0000E-02  1.0000E-02  1.0000E-02  1.0000E-02  1.0000E-02  1.0000E-02  1.0000E-02  1.0000E-02
       1.0000E-02  1.0000E-02  1.0000E-02  1.0000E-02  1.0000E-02  1.0000E-02
  56   1.0000E-02  1.0000E-02  1.0000E-02  1.0000E-02  1.0000E-02  1.0000E-02  1.0000E-02  1.0000E-02  1.0000E-02  1.0000E-02
       1.0000E-02  1.0000E-02  1.0000E-02  1.0000E-02  1.0000E-02  1.0000E-02  1.0000E-02  1.0000E-02  1.0000E-02  1.0000E-02
       1.0000E-02  1.0000E-02  1.0000E-02  1.0000E-02  1.0000E-02  1.0000E-02  1.0000E-02  1.0000E-02  1.0000E-02  1.0000E-02
       1.0000E-02  1.0000E-02  1.0000E-02  1.0000E-02  1.0000E-02  1.0000E-02  1.0000E-02  1.0000E-02  1.0000E-02  1.0000E-02
       1.0000E-02  1.0000E-02  1.0000E-02  1.0000E-02  1.0000E-02  1.0000E-02  1.0000E-02  1.0000E-02  1.0000E-02  1.0000E-02
       1.0000E-02  1.0000E-02  1.0000E-02  1.0000E-02  1.0000E-02  1.0000E-02  1.0000E-02  1.0000E-02  1.0000E-02  1.0000E-02
       1.0000E-02  1.0000E-02  1.0000E-02  1.0000E-02  1.0000E-02  1.0000E-02  1.0000E-02  1.0000E-02  1.0000E-02  1.0000E-02
       1.0000E-02  1.0000E-02  1.0000E-02  1.0000E-02  1.0000E-02  1.0000E-02
  57   1.0000E-02  1.0000E-02  1.0000E-02  1.0000E-02  1.0000E-02  1.0000E-02  1.0000E-02  1.0000E-02  1.0000E-02  1.0000E-02
       1.0000E-02  1.0000E-02  1.0000E-02  1.0000E-02  1.0000E-02  1.0000E-02  1.0000E-02  1.0000E-02  1.0000E-02  1.0000E-02
       1.0000E-02  1.0000E-02  1.0000E-02  1.0000E-02  1.0000E-02  1.0000E-02  1.0000E-02  1.0000E-02  1.0000E-02  1.0000E-02
       1.0000E-02  1.0000E-02  1.0000E-02  1.0000E-02  1.0000E-02  1.0000E-02  1.0000E-02  1.0000E-02  1.0000E-02  1.0000E-02
       1.0000E-02  1.0000E-02  1.0000E-02  1.0000E-02  1.0000E-02  1.0000E-02  1.0000E-02  1.0000E-02  1.0000E-02  1.0000E-02
       1.0000E-02  1.0000E-02  1.0000E-02  1.0000E-02  1.0000E-02  1.0000E-02  1.0000E-02  1.0000E-02  1.0000E-02  1.0000E-02
       1.0000E-02  1.0000E-02  1.0000E-02  1.0000E-02  1.0000E-02  1.0000E-02  1.0000E-02  1.0000E-02  1.0000E-02  1.0000E-02
       1.0000E-02  1.0000E-02  1.0000E-02  1.0000E-02  1.0000E-02  1.0000E-02
  58   1.0000E-02  1.0000E-02  1.0000E-02  1.0000E-02  1.0000E-02  1.0000E-02  1.0000E-02  1.0000E-02  1.0000E-02  1.0000E-02
       1.0000E-02  1.0000E-02  1.0000E-02  1.0000E-02  1.0000E-02  1.0000E-02  1.0000E-02  1.0000E-02  1.0000E-02  1.0000E-02
       1.0000E-02  1.0000E-02   0.000      1.0000E-02  1.0000E-02  1.0000E-02  1.0000E-02  1.0000E-02  1.0000E-02  1.0000E-02
       1.0000E-02  1.0000E-02  1.0000E-02  1.0000E-02  1.0000E-02  1.0000E-02  1.0000E-02  1.0000E-02  1.0000E-02  1.0000E-02
       1.0000E-02  1.0000E-02  1.0000E-02  1.0000E-02  1.0000E-02  1.0000E-02  1.0000E-02  1.0000E-02  1.0000E-02  1.0000E-02
       1.0000E-02  1.0000E-02  1.0000E-02  1.0000E-02  1.0000E-02  1.0000E-02  1.0000E-02  1.0000E-02  1.0000E-02  1.0000E-02
       1.0000E-02  1.0000E-02  1.0000E-02  1.0000E-02  1.0000E-02  1.0000E-02  1.0000E-02  1.0000E-02  1.0000E-02  1.0000E-02
       1.0000E-02  1.0000E-02  1.0000E-02  1.0000E-02  1.0000E-02  1.0000E-02
  59   1.0000E-02  1.0000E-02  1.0000E-02  1.0000E-02  1.0000E-02  1.0000E-02  1.0000E-02  1.0000E-02  1.0000E-02  1.0000E-02
       1.0000E-02  1.0000E-02  1.0000E-02  1.0000E-02  1.0000E-02  1.0000E-02  1.0000E-02  1.0000E-02  1.0000E-02  1.0000E-02
       1.0000E-02  1.0000E-02  1.0000E-02  1.0000E-02  1.0000E-02  1.0000E-02  1.0000E-02  1.0000E-02  1.0000E-02  1.0000E-02
       1.0000E-02  1.0000E-02  1.0000E-02  1.0000E-02  1.0000E-02  1.0000E-02  1.0000E-02  1.0000E-02  1.0000E-02  1.0000E-02
       1.0000E-02  1.0000E-02  1.0000E-02  1.0000E-02  1.0000E-02  1.0000E-02  1.0000E-02  1.0000E-02  1.0000E-02  1.0000E-02
       1.0000E-02  1.0000E-02  1.0000E-02  1.0000E-02  1.0000E-02  1.0000E-02  1.0000E-02  1.0000E-02  1.0000E-02  1.0000E-02
       1.0000E-02  1.0000E-02  1.0000E-02  1.0000E-02  1.0000E-02  1.0000E-02  1.0000E-02  1.0000E-02  1.0000E-02  1.0000E-02
       1.0000E-02  1.0000E-02  1.0000E-02  1.0000E-02  1.0000E-02  1.0000E-02
  60   1.0000E-02  1.0000E-02  1.0000E-02  1.0000E-02  1.0000E-02  1.0000E-02  1.0000E-02  1.0000E-02  1.0000E-02  1.0000E-02
       1.0000E-02  1.0000E-02  1.0000E-02  1.0000E-02  1.0000E-02  1.0000E-02  1.0000E-02  1.0000E-02  1.0000E-02  1.0000E-02
       1.0000E-02  1.0000E-02  1.0000E-02  1.0000E-02  1.0000E-02  1.0000E-02  1.0000E-02  1.0000E-02  1.0000E-02  1.0000E-02
       1.0000E-02  1.0000E-02  1.0000E-02  1.0000E-02  1.0000E-02  1.0000E-02  1.0000E-02  1.0000E-02  1.0000E-02  1.0000E-02
       1.0000E-02  1.0000E-02  1.0000E-02  1.0000E-02  1.0000E-02  1.0000E-02  1.0000E-02  1.0000E-02  1.0000E-02  1.0000E-02
       1.0000E-02  1.0000E-02  1.0000E-02  1.0000E-02  1.0000E-02  1.0000E-02  1.0000E-02  1.0000E-02  1.0000E-02  1.0000E-02
       1.0000E-02  1.0000E-02  1.0000E-02  1.0000E-02  1.0000E-02  1.0000E-02  1.0000E-02  1.0000E-02  1.0000E-02  1.0000E-02
       1.0000E-02  1.0000E-02  1.0000E-02  1.0000E-02  1.0000E-02  1.0000E-02
  61   1.0000E-02  1.0000E-02  1.0000E-02  1.0000E-02  1.0000E-02  1.0000E-02  1.0000E-02  1.0000E-02  1.0000E-02  1.0000E-02
       1.0000E-02  1.0000E-02  1.0000E-02  1.0000E-02  1.0000E-02  1.0000E-02  1.0000E-02  1.0000E-02  1.0000E-02  1.0000E-02
       1.0000E-02   0.000      1.0000E-02  1.0000E-02  1.0000E-02  1.0000E-02  1.0000E-02  1.0000E-02  1.0000E-02  1.0000E-02
       1.0000E-02  1.0000E-02  1.0000E-02  1.0000E-02  1.0000E-02  1.0000E-02  1.0000E-02  1.0000E-02  1.0000E-02  1.0000E-02
       1.0000E-02  1.0000E-02  1.0000E-02  1.0000E-02  1.0000E-02  1.0000E-02  1.0000E-02  1.0000E-02  1.0000E-02  1.0000E-02
       1.0000E-02  1.0000E-02  1.0000E-02  1.0000E-02  1.0000E-02  1.0000E-02  1.0000E-02  1.0000E-02  1.0000E-02  1.0000E-02
       1.0000E-02  1.0000E-02  1.0000E-02  1.0000E-02  1.0000E-02  1.0000E-02  1.0000E-02  1.0000E-02  1.0000E-02  1.0000E-02
       1.0000E-02  1.0000E-02  1.0000E-02  1.0000E-02  1.0000E-02  1.0000E-02
  62   1.0000E-02  1.0000E-02  1.0000E-02  1.0000E-02  1.0000E-02  1.0000E-02  1.0000E-02  1.0000E-02  1.0000E-02  1.0000E-02
       1.0000E-02  1.0000E-02  1.0000E-02  1.0000E-02  1.0000E-02  1.0000E-02  1.0000E-02  1.0000E-02  1.0000E-02  1.0000E-02
       1.0000E-02   0.000      1.0000E-02  1.0000E-02  1.0000E-02  1.0000E-02  1.0000E-02  1.0000E-02  1.0000E-02  1.0000E-02
       1.0000E-02  1.0000E-02  1.0000E-02  1.0000E-02  1.0000E-02  1.0000E-02  1.0000E-02  1.0000E-02  1.0000E-02  1.0000E-02
       1.0000E-02  1.0000E-02  1.0000E-02  1.0000E-02  1.0000E-02  1.0000E-02  1.0000E-02  1.0000E-02  1.0000E-02  1.0000E-02
       1.0000E-02  1.0000E-02  1.0000E-02  1.0000E-02  1.0000E-02  1.0000E-02  1.0000E-02  1.0000E-02  1.0000E-02  1.0000E-02
       1.0000E-02  1.0000E-02  1.0000E-02  1.0000E-02  1.0000E-02  1.0000E-02  1.0000E-02  1.0000E-02  1.0000E-02  1.0000E-02
       1.0000E-02  1.0000E-02  1.0000E-02  1.0000E-02  1.0000E-02  1.0000E-02
  63   1.0000E-02  1.0000E-02  1.0000E-02  1.0000E-02  1.0000E-02  1.0000E-02  1.0000E-02  1.0000E-02  1.0000E-02  1.0000E-02
       1.0000E-02  1.0000E-02  1.0000E-02  1.0000E-02  1.0000E-02  1.0000E-02  1.0000E-02  1.0000E-02  1.0000E-02  1.0000E-02
       1.0000E-02  1.0000E-02  1.0000E-02  1.0000E-02  1.0000E-02  1.0000E-02  1.0000E-02  1.0000E-02  1.0000E-02  1.0000E-02
       1.0000E-02  1.0000E-02  1.0000E-02  1.0000E-02  1.0000E-02  1.0000E-02  1.0000E-02  1.0000E-02  1.0000E-02  1.0000E-02
       1.0000E-02  1.0000E-02  1.0000E-02  1.0000E-02  1.0000E-02  1.0000E-02  1.0000E-02  1.0000E-02  1.0000E-02  1.0000E-02
       1.0000E-02  1.0000E-02  1.0000E-02  1.0000E-02  1.0000E-02  1.0000E-02  1.0000E-02  1.0000E-02  1.0000E-02  1.0000E-02
       1.0000E-02  1.0000E-02  1.0000E-02  1.0000E-02  1.0000E-02  1.0000E-02  1.0000E-02  1.0000E-02  1.0000E-02  1.0000E-02
       1.0000E-02  1.0000E-02  1.0000E-02  1.0000E-02  1.0000E-02  1.0000E-02
  64   1.0000E-02  1.0000E-02  1.0000E-02  1.0000E-02  1.0000E-02  1.0000E-02  1.0000E-02  1.0000E-02  1.0000E-02  1.0000E-02
       1.0000E-02  1.0000E-02  1.0000E-02  1.0000E-02  1.0000E-02  1.0000E-02  1.0000E-02  1.0000E-02  1.0000E-02  1.0000E-02
        0.000      1.0000E-02  1.0000E-02  1.0000E-02  1.0000E-02  1.0000E-02  1.0000E-02  1.0000E-02  1.0000E-02  1.0000E-02
       1.0000E-02  1.0000E-02  1.0000E-02  1.0000E-02  1.0000E-02  1.0000E-02  1.0000E-02  1.0000E-02  1.0000E-02  1.0000E-02
       1.0000E-02  1.0000E-02  1.0000E-02  1.0000E-02  1.0000E-02  1.0000E-02  1.0000E-02  1.0000E-02  1.0000E-02  1.0000E-02
       1.0000E-02  1.0000E-02  1.0000E-02  1.0000E-02  1.0000E-02  1.0000E-02  1.0000E-02  1.0000E-02  1.0000E-02  1.0000E-02
       1.0000E-02  1.0000E-02  1.0000E-02  1.0000E-02  1.0000E-02  1.0000E-02  1.0000E-02  1.0000E-02  1.0000E-02  1.0000E-02
       1.0000E-02  1.0000E-02  1.0000E-02  1.0000E-02  1.0000E-02  1.0000E-02
  65   1.0000E-02  1.0000E-02  1.0000E-02  1.0000E-02  1.0000E-02  1.0000E-02  1.0000E-02  1.0000E-02  1.0000E-02  1.0000E-02
       1.0000E-02  1.0000E-02  1.0000E-02  1.0000E-02  1.0000E-02  1.0000E-02  1.0000E-02  1.0000E-02  1.0000E-02  1.0000E-02
        0.000      1.0000E-02  1.0000E-02  1.0000E-02  1.0000E-02  1.0000E-02  1.0000E-02  1.0000E-02  1.0000E-02  1.0000E-02
       1.0000E-02  1.0000E-02  1.0000E-02  1.0000E-02  1.0000E-02  1.0000E-02  1.0000E-02  1.0000E-02  1.0000E-02  1.0000E-02
       1.0000E-02  1.0000E-02  1.0000E-02  1.0000E-02  1.0000E-02  1.0000E-02  1.0000E-02  1.0000E-02  1.0000E-02  1.0000E-02
       1.0000E-02  1.0000E-02  1.0000E-02  1.0000E-02  1.0000E-02  1.0000E-02  1.0000E-02  1.0000E-02  1.0000E-02  1.0000E-02
       1.0000E-02  1.0000E-02  1.0000E-02  1.0000E-02  1.0000E-02  1.0000E-02  1.0000E-02  1.0000E-02  1.0000E-02  1.0000E-02
       1.0000E-02  1.0000E-02  1.0000E-02  1.0000E-02  1.0000E-02  1.0000E-02
  66   1.0000E-02  1.0000E-02  1.0000E-02  1.0000E-02  1.0000E-02  1.0000E-02  1.0000E-02  1.0000E-02  1.0000E-02  1.0000E-02
       1.0000E-02  1.0000E-02  1.0000E-02  1.0000E-02  1.0000E-02  1.0000E-02  1.0000E-02  1.0000E-02  1.0000E-02  1.0000E-02
        0.000      1.0000E-02  1.0000E-02  1.0000E-02  1.0000E-02  1.0000E-02  1.0000E-02  1.0000E-02  1.0000E-02  1.0000E-02
       1.0000E-02  1.0000E-02  1.0000E-02  1.0000E-02  1.0000E-02  1.0000E-02  1.0000E-02  1.0000E-02  1.0000E-02  1.0000E-02
       1.0000E-02  1.0000E-02  1.0000E-02  1.0000E-02  1.0000E-02  1.0000E-02  1.0000E-02  1.0000E-02  1.0000E-02  1.0000E-02
       1.0000E-02  1.0000E-02  1.0000E-02  1.0000E-02  1.0000E-02  1.0000E-02  1.0000E-02  1.0000E-02  1.0000E-02  1.0000E-02
       1.0000E-02  1.0000E-02  1.0000E-02  1.0000E-02  1.0000E-02  1.0000E-02  1.0000E-02  1.0000E-02  1.0000E-02  1.0000E-02
       1.0000E-02  1.0000E-02  1.0000E-02  1.0000E-02  1.0000E-02  1.0000E-02
  67   1.0000E-02  1.0000E-02  1.0000E-02  1.0000E-02  1.0000E-02  1.0000E-02  1.0000E-02  1.0000E-02  1.0000E-02  1.0000E-02
       1.0000E-02  1.0000E-02  1.0000E-02  1.0000E-02  1.0000E-02  1.0000E-02  1.0000E-02  1.0000E-02  1.0000E-02  1.0000E-02
       1.0000E-02  1.0000E-02  1.0000E-02  1.0000E-02  1.0000E-02  1.0000E-02  1.0000E-02  1.0000E-02  1.0000E-02  1.0000E-02
       1.0000E-02  1.0000E-02  1.0000E-02  1.0000E-02  1.0000E-02  1.0000E-02  1.0000E-02  1.0000E-02  1.0000E-02  1.0000E-02
       1.0000E-02  1.0000E-02  1.0000E-02  1.0000E-02  1.0000E-02  1.0000E-02  1.0000E-02  1.0000E-02  1.0000E-02  1.0000E-02
       1.0000E-02  1.0000E-02  1.0000E-02  1.0000E-02  1.0000E-02  1.0000E-02  1.0000E-02  1.0000E-02  1.0000E-02  1.0000E-02
       1.0000E-02  1.0000E-02  1.0000E-02  1.0000E-02  1.0000E-02  1.0000E-02  1.0000E-02  1.0000E-02  1.0000E-02  1.0000E-02
       1.0000E-02  1.0000E-02  1.0000E-02  1.0000E-02  1.0000E-02  1.0000E-02
  68   1.0000E-02  1.0000E-02  1.0000E-02  1.0000E-02  1.0000E-02  1.0000E-02  1.0000E-02  1.0000E-02  1.0000E-02  1.0000E-02
       1.0000E-02  1.0000E-02  1.0000E-02  1.0000E-02  1.0000E-02  1.0000E-02  1.0000E-02  1.0000E-02  1.0000E-02   0.000    
       1.0000E-02  1.0000E-02  1.0000E-02  1.0000E-02  1.0000E-02  1.0000E-02  1.0000E-02  1.0000E-02  1.0000E-02  1.0000E-02
       1.0000E-02  1.0000E-02  1.0000E-02  1.0000E-02  1.0000E-02  1.0000E-02  1.0000E-02  1.0000E-02  1.0000E-02  1.0000E-02
       1.0000E-02  1.0000E-02  1.0000E-02  1.0000E-02  1.0000E-02  1.0000E-02  1.0000E-02  1.0000E-02  1.0000E-02  1.0000E-02
       1.0000E-02  1.0000E-02  1.0000E-02  1.0000E-02  1.0000E-02  1.0000E-02  1.0000E-02  1.0000E-02  1.0000E-02  1.0000E-02
       1.0000E-02  1.0000E-02  1.0000E-02  1.0000E-02  1.0000E-02  1.0000E-02  1.0000E-02  1.0000E-02  1.0000E-02  1.0000E-02
       1.0000E-02  1.0000E-02  1.0000E-02  1.0000E-02  1.0000E-02  1.0000E-02
  69   1.0000E-02  1.0000E-02  1.0000E-02  1.0000E-02  1.0000E-02  1.0000E-02  1.0000E-02  1.0000E-02  1.0000E-02  1.0000E-02
       1.0000E-02  1.0000E-02  1.0000E-02  1.0000E-02  1.0000E-02  1.0000E-02  1.0000E-02  1.0000E-02  1.0000E-02   0.000    
       1.0000E-02  1.0000E-02  1.0000E-02  1.0000E-02  1.0000E-02  1.0000E-02  1.0000E-02  1.0000E-02  1.0000E-02  1.0000E-02
       1.0000E-02  1.0000E-02  1.0000E-02  1.0000E-02  1.0000E-02  1.0000E-02  1.0000E-02  1.0000E-02  1.0000E-02  1.0000E-02
       1.0000E-02  1.0000E-02  1.0000E-02  1.0000E-02  1.0000E-02  1.0000E-02  1.0000E-02  1.0000E-02  1.0000E-02  1.0000E-02
       1.0000E-02  1.0000E-02  1.0000E-02  1.0000E-02  1.0000E-02  1.0000E-02  1.0000E-02  1.0000E-02  1.0000E-02  1.0000E-02
       1.0000E-02  1.0000E-02  1.0000E-02  1.0000E-02  1.0000E-02  1.0000E-02  1.0000E-02  1.0000E-02  1.0000E-02  1.0000E-02
       1.0000E-02  1.0000E-02  1.0000E-02  1.0000E-02  1.0000E-02  1.0000E-02
  70   1.0000E-02  1.0000E-02  1.0000E-02  1.0000E-02  1.0000E-02  1.0000E-02  1.0000E-02  1.0000E-02  1.0000E-02  1.0000E-02
       1.0000E-02  1.0000E-02  1.0000E-02  1.0000E-02  1.0000E-02  1.0000E-02  1.0000E-02  1.0000E-02  1.0000E-02   0.000    
       1.0000E-02  1.0000E-02  1.0000E-02  1.0000E-02  1.0000E-02  1.0000E-02  1.0000E-02  1.0000E-02  1.0000E-02  1.0000E-02
       1.0000E-02  1.0000E-02  1.0000E-02  1.0000E-02  1.0000E-02  1.0000E-02  1.0000E-02  1.0000E-02  1.0000E-02  1.0000E-02
       1.0000E-02  1.0000E-02  1.0000E-02  1.0000E-02  1.0000E-02  1.0000E-02  1.0000E-02  1.0000E-02  1.0000E-02  1.0000E-02
       1.0000E-02  1.0000E-02  1.0000E-02  1.0000E-02  1.0000E-02  1.0000E-02  1.0000E-02  1.0000E-02  1.0000E-02  1.0000E-02
       1.0000E-02  1.0000E-02  1.0000E-02  1.0000E-02  1.0000E-02  1.0000E-02  1.0000E-02  1.0000E-02  1.0000E-02  1.0000E-02
       1.0000E-02  1.0000E-02  1.0000E-02  1.0000E-02  1.0000E-02  1.0000E-02
  71   1.0000E-02  1.0000E-02  1.0000E-02  1.0000E-02  1.0000E-02  1.0000E-02  1.0000E-02  1.0000E-02  1.0000E-02  1.0000E-02
       1.0000E-02  1.0000E-02  1.0000E-02  1.0000E-02  1.0000E-02  1.0000E-02  1.0000E-02  1.0000E-02   0.000      1.0000E-02
       1.0000E-02  1.0000E-02  1.0000E-02  1.0000E-02  1.0000E-02  1.0000E-02  1.0000E-02  1.0000E-02  1.0000E-02  1.0000E-02
       1.0000E-02  1.0000E-02  1.0000E-02  1.0000E-02  1.0000E-02  1.0000E-02  1.0000E-02  1.0000E-02  1.0000E-02  1.0000E-02
       1.0000E-02  1.0000E-02  1.0000E-02  1.0000E-02  1.0000E-02  1.0000E-02  1.0000E-02  1.0000E-02  1.0000E-02  1.0000E-02
       1.0000E-02  1.0000E-02  1.0000E-02  1.0000E-02  1.0000E-02  1.0000E-02  1.0000E-02  1.0000E-02  1.0000E-02  1.0000E-02
       1.0000E-02  1.0000E-02  1.0000E-02  1.0000E-02  1.0000E-02  1.0000E-02  1.0000E-02  1.0000E-02  1.0000E-02  1.0000E-02
       1.0000E-02  1.0000E-02  1.0000E-02  1.0000E-02  1.0000E-02  1.0000E-02
  72    5.000       5.000       5.000       5.000       5.000       5.000       5.000       5.000       5.000       5.000    
        5.000       5.000       5.000       5.000       5.000       5.000       5.000       5.000       0.000       5.000    
        5.000       5.000       5.000       5.000       5.000       5.000       5.000       5.000       5.000       5.000    
        5.000       5.000       5.000       5.000       5.000       5.000       5.000       5.000       5.000       5.000    
        5.000       5.000       5.000       5.000       5.000       5.000       5.000       5.000       5.000       5.000    
        5.000       5.000       5.000       5.000       5.000       5.000       5.000       5.000       5.000       5.000    
        5.000       5.000       5.000       5.000       5.000       5.000       5.000       5.000       5.000       5.000    
        5.000       5.000       5.000       5.000       5.000       5.000    
  73    5.000       5.000       5.000       5.000       5.000       5.000       5.000       5.000       5.000       5.000    
        5.000       5.000       5.000       5.000       5.000       5.000       5.000       5.000       0.000       5.000    
        5.000       5.000       5.000       5.000       5.000       5.000       5.000       5.000       5.000       5.000    
        5.000       5.000       5.000       5.000       5.000       5.000       5.000       5.000       5.000       5.000    
        5.000       5.000       5.000       5.000       5.000       5.000       5.000       5.000       5.000       5.000    
        5.000       5.000       5.000       5.000       5.000       5.000       5.000       5.000       5.000       5.000    
        5.000       5.000       5.000       5.000       5.000       5.000       5.000       5.000       5.000       5.000    
        5.000       5.000       5.000       5.000       5.000       5.000    
  74    5.000       5.000       5.000       5.000       5.000       5.000       5.000       5.000       5.000       5.000    
        5.000       5.000       5.000       5.000       5.000       5.000       5.000       0.000       0.000       5.000    
        5.000       5.000       5.000       5.000       5.000       5.000       5.000       5.000       5.000       5.000    
        5.000       5.000       5.000       5.000       5.000       5.000       5.000       5.000       5.000       5.000    
        5.000       5.000       5.000       5.000       5.000       5.000       5.000       5.000       5.000       5.000    
        5.000       5.000       5.000       5.000       5.000       5.000       5.000       5.000       5.000       5.000    
        5.000       5.000       5.000       5.000       5.000       5.000       5.000       5.000       5.000       5.000    
        5.000       5.000       5.000       5.000       5.000       5.000    
  75    5.000       5.000       5.000       5.000       5.000       5.000       5.000       5.000       5.000       5.000    
        5.000       5.000       5.000       5.000       5.000       5.000       5.000       0.000       5.000       5.000    
        5.000       5.000       5.000       5.000       5.000       5.000       5.000       5.000       5.000       5.000    
        5.000       5.000       5.000       5.000       5.000       5.000       5.000       5.000       5.000       5.000    
        5.000       5.000       5.000       5.000       5.000       5.000       5.000       5.000       5.000       5.000    
        5.000       5.000       5.000       5.000       5.000       5.000       5.000       5.000       5.000       5.000    
        5.000       5.000       5.000       5.000       5.000       5.000       5.000       5.000       5.000       5.000    
        5.000       5.000       5.000       5.000       5.000       5.000    
  76    5.000       5.000       5.000       5.000       5.000       5.000       5.000       5.000       5.000       5.000    
        5.000       5.000       5.000       5.000       5.000       5.000       5.000       0.000       5.000       5.000    
        5.000       5.000       5.000       5.000       5.000       5.000       5.000       5.000       5.000       5.000    
        5.000       5.000       5.000       5.000       5.000       5.000       5.000       5.000       5.000       5.000    
        5.000       5.000       5.000       5.000       5.000       5.000       5.000       5.000       5.000       5.000    
        5.000       5.000       5.000       5.000       5.000       5.000       5.000       5.000       5.000       5.000    
        5.000       5.000       5.000       5.000       5.000       5.000       5.000       5.000       5.000       5.000    
        5.000       5.000       5.000       5.000       5.000       5.000    
  77    5.000       5.000       5.000       5.000       5.000       5.000       5.000       5.000       5.000       5.000    
        5.000       5.000       5.000       5.000       5.000       5.000       0.000       0.000       5.000       5.000    
        5.000       5.000       5.000       5.000       5.000       5.000       5.000       5.000       5.000       5.000    
        5.000       5.000       5.000       5.000       5.000       5.000       5.000       5.000       5.000       5.000    
        5.000       5.000       5.000       5.000       5.000       5.000       5.000       5.000       5.000       5.000    
        5.000       5.000       5.000       5.000       5.000       5.000       5.000       5.000       5.000       5.000    
        5.000       5.000       5.000       5.000       5.000       5.000       5.000       5.000       5.000       5.000    
        5.000       5.000       5.000       5.000       5.000       5.000    
  78    5.000       5.000       5.000       5.000       5.000       5.000       5.000       5.000       5.000       5.000    
        5.000       5.000       5.000       5.000       5.000       5.000       0.000       0.000       5.000       5.000    
        5.000       5.000       5.000       5.000       5.000       5.000       5.000       5.000       5.000       5.000    
        5.000       5.000       5.000       5.000       5.000       5.000       5.000       5.000       5.000       5.000    
        5.000       5.000       5.000       5.000       5.000       5.000       5.000       5.000       5.000       5.000    
        5.000       5.000       5.000       5.000       5.000       5.000       5.000       5.000       5.000       5.000    
        5.000       5.000       5.000       5.000       5.000       5.000       5.000       5.000       5.000       5.000    
        5.000       5.000       5.000       5.000       5.000       5.000    
  79    5.000       5.000       5.000       5.000       5.000       5.000       5.000       5.000       5.000       5.000    
        5.000       5.000       5.000       5.000       5.000       5.000       0.000       0.000       5.000       5.000    
        5.000       5.000       5.000       5.000       5.000       5.000       5.000       5.000       5.000       5.000    
        5.000       5.000       5.000       5.000       5.000       5.000       5.000       5.000       5.000       5.000    
        5.000       5.000       5.000       5.000       5.000       5.000       5.000       5.000       5.000       5.000    
        5.000       5.000       5.000       5.000       5.000       5.000       5.000       5.000       5.000       5.000    
        5.000       5.000       5.000       5.000       5.000       5.000       5.000       5.000       5.000       5.000    
        5.000       5.000       5.000       5.000       5.000       5.000    
  80    5.000       5.000       5.000       5.000       5.000       5.000       5.000       5.000       5.000       5.000    
        5.000       5.000       5.000       5.000       5.000       5.000       0.000       5.000       5.000       5.000    
        5.000       5.000       5.000       5.000       5.000       5.000       5.000       5.000       5.000       5.000    
        5.000       5.000       5.000       5.000       5.000       5.000       5.000       5.000       5.000       5.000    
        5.000       5.000       5.000       5.000       5.000       5.000       5.000       5.000       5.000       5.000    
        5.000       5.000       5.000       5.000       5.000       5.000       5.000       5.000       5.000       5.000    
        5.000       5.000       5.000       5.000       5.000       5.000       5.000       5.000       5.000       5.000    
        5.000       5.000       5.000       5.000       5.000       5.000    
  81    5.000       5.000       5.000       5.000       5.000       5.000       5.000       5.000       5.000       5.000    
        5.000       5.000       5.000       5.000       5.000       0.000       0.000       5.000       5.000       5.000    
        5.000       5.000       5.000       5.000       5.000       5.000       5.000       5.000       5.000       5.000    
        5.000       5.000       5.000       5.000       5.000       5.000       5.000       5.000       5.000       5.000    
        5.000       5.000       5.000       5.000       5.000       5.000       5.000       5.000       5.000       5.000    
        5.000       5.000       5.000       5.000       5.000       5.000       5.000       5.000       5.000       5.000    
        5.000       5.000       5.000       5.000       5.000       5.000       5.000       5.000       5.000       5.000    
        5.000       5.000       5.000       5.000       5.000       5.000    
  82    5.000       5.000       5.000       5.000       5.000       5.000       5.000       5.000       5.000       5.000    
        5.000       5.000       5.000       5.000       5.000       0.000       0.000       5.000       5.000       5.000    
        5.000       5.000       5.000       5.000       5.000       5.000       5.000       5.000       5.000       5.000    
        5.000       5.000       5.000       5.000       5.000       5.000       5.000       5.000       5.000       5.000    
        5.000       5.000       5.000       5.000       5.000       5.000       5.000       5.000       5.000       5.000    
        5.000       5.000       5.000       5.000       5.000       5.000       5.000       5.000       5.000       5.000    
        5.000       5.000       5.000       5.000       5.000       5.000       5.000       5.000       5.000       5.000    
        5.000       5.000       5.000       5.000       5.000       5.000    
  83    5.000       5.000       5.000       5.000       5.000       5.000       5.000       5.000       5.000       5.000    
        5.000       5.000       5.000       5.000       5.000       0.000       5.000       5.000       5.000       5.000    
        5.000       5.000       5.000       5.000       5.000       5.000       5.000       5.000       5.000       5.000    
        5.000       5.000       5.000       5.000       5.000       5.000       5.000       5.000       5.000       5.000    
        5.000       5.000       5.000       5.000       5.000       5.000       5.000       5.000       5.000       5.000    
        5.000       5.000       5.000       5.000       5.000       5.000       5.000       5.000       5.000       5.000    
        5.000       5.000       5.000       5.000       5.000       5.000       5.000       5.000       5.000       5.000    
        5.000       5.000       5.000       5.000       5.000       5.000    
  84    5.000       5.000       5.000       5.000       5.000       5.000       5.000       5.000       5.000       5.000    
        5.000       5.000       5.000       5.000       0.000       0.000       5.000       5.000       5.000       5.000    
        5.000       5.000       5.000       5.000       5.000       5.000       5.000       5.000       5.000       5.000    
        5.000       5.000       5.000       5.000       5.000       5.000       5.000       5.000       5.000       5.000    
        5.000       5.000       5.000       5.000       5.000       5.000       5.000       5.000       5.000       5.000    
        5.000       5.000       5.000       5.000       5.000       5.000       5.000       5.000       5.000       5.000    
        5.000       5.000       5.000       5.000       5.000       5.000       5.000       5.000       5.000       5.000    
        5.000       5.000       5.000       5.000       5.000       5.000    
  85    5.000       5.000       5.000       5.000       5.000       5.000       5.000       5.000       5.000       5.000    
        5.000       5.000       5.000       5.000       0.000       0.000       5.000       5.000       5.000       5.000    
        5.000       5.000       5.000       5.000       5.000       5.000       5.000       5.000       5.000       5.000    
        5.000       5.000       5.000       5.000       5.000       5.000       5.000       5.000       5.000       5.000    
        5.000       5.000       5.000       5.000       5.000       5.000       5.000       5.000       5.000       5.000    
        5.000       5.000       5.000       5.000       5.000       5.000       5.000       5.000       5.000       5.000    
        5.000       5.000       5.000       5.000       5.000       5.000       5.000       5.000       5.000       5.000    
        5.000       5.000       5.000       5.000       5.000       5.000    
  86    5.000       5.000       5.000       5.000       5.000       5.000       5.000       5.000       5.000       5.000    
        5.000       5.000       5.000       5.000       0.000       5.000       5.000       5.000       5.000       5.000    
        5.000       5.000       5.000       5.000       5.000       5.000       5.000       5.000       5.000       5.000    
        5.000       5.000       5.000       5.000       5.000       5.000       5.000       5.000       5.000       5.000    
        5.000       5.000       5.000       5.000       5.000       5.000       5.000       5.000       5.000       5.000    
        5.000       5.000       5.000       5.000       5.000       5.000       5.000       5.000       5.000       5.000    
        5.000       5.000       5.000       5.000       5.000       5.000       5.000       5.000       5.000       5.000    
        5.000       5.000       5.000       5.000       5.000       5.000    
  87    5.000       5.000       5.000       5.000       5.000       5.000       5.000       5.000       5.000       5.000    
        5.000       5.000       5.000       0.000       0.000       5.000       5.000       5.000       5.000       5.000    
        5.000       5.000       5.000       5.000       5.000       5.000       5.000       5.000       5.000       5.000    
        5.000       5.000       5.000       5.000       5.000       5.000       5.000       5.000       5.000       5.000    
        5.000       5.000       5.000       5.000       5.000       5.000       5.000       5.000       5.000       5.000    
        5.000       5.000       5.000       5.000       5.000       5.000       5.000       5.000       5.000       5.000    
        5.000       5.000       5.000       5.000       5.000       5.000       5.000       5.000       5.000       5.000    
        5.000       5.000       5.000       5.000       5.000       5.000    
  88    5.000       5.000       5.000       5.000       5.000       5.000       5.000       5.000       5.000       5.000    
        5.000       5.000       5.000       0.000       0.000       5.000       5.000       5.000       5.000       5.000    
        5.000       5.000       5.000       5.000       5.000       5.000       5.000       5.000       5.000       5.000    
        5.000       5.000       5.000       5.000       5.000       5.000       5.000       5.000       5.000       5.000    
        5.000       5.000       5.000       5.000       5.000       5.000       5.000       5.000       5.000       5.000    
        5.000       5.000       5.000       5.000       5.000       5.000       5.000       5.000       5.000       5.000    
        5.000       5.000       5.000       5.000       5.000       5.000       5.000       5.000       5.000       5.000    
        5.000       5.000       5.000       5.000       5.000       5.000    
  89    5.000       5.000       5.000       5.000       5.000       5.000       5.000       5.000       5.000       5.000    
        5.000       5.000       5.000       0.000       5.000       5.000       5.000       5.000       5.000       5.000    
        5.000       5.000       5.000       5.000       5.000       5.000       5.000       5.000       5.000       5.000    
        5.000       5.000       5.000       5.000       5.000       5.000       5.000       5.000       5.000       5.000    
        5.000       5.000       5.000       5.000       5.000       5.000       5.000       5.000       5.000       5.000    
        5.000       5.000       5.000       5.000       5.000       5.000       5.000       5.000       5.000       5.000    
        5.000       5.000       5.000       5.000       5.000       5.000       5.000       5.000       5.000       5.000    
        5.000       5.000       5.000       5.000       5.000       5.000    
  90    5.000       5.000       5.000       5.000       5.000       5.000       5.000       5.000       5.000       5.000    
        5.000       5.000       0.000       0.000       5.000       5.000       5.000       5.000       5.000       5.000    
        5.000       5.000       5.000       5.000       5.000       5.000       5.000       5.000       5.000       5.000    
        5.000       5.000       5.000       5.000       5.000       5.000       5.000       5.000       5.000       5.000    
        5.000       5.000       5.000       5.000       5.000       5.000       5.000       5.000       5.000       5.000    
        5.000       5.000       5.000       5.000       5.000       5.000       5.000       5.000       5.000       5.000    
        5.000       5.000       5.000       5.000       5.000       5.000       5.000       5.000       5.000       5.000    
        5.000       5.000       5.000       5.000       5.000       5.000    
  91    5.000       5.000       5.000       5.000       5.000       5.000       5.000       5.000       5.000       5.000    
        5.000       5.000       0.000       0.000       5.000       5.000       5.000       5.000       5.000       5.000    
        5.000       5.000       5.000       5.000       5.000       5.000       5.000       5.000       5.000       5.000    
        5.000       5.000       5.000       5.000       5.000       5.000       5.000       5.000       5.000       5.000    
        5.000       5.000       5.000       5.000       5.000       5.000       5.000       5.000       5.000       5.000    
        5.000       5.000       5.000       5.000       5.000       5.000       5.000       5.000       5.000       5.000    
        5.000       5.000       5.000       5.000       5.000       5.000       5.000       5.000       5.000       5.000    
        5.000       5.000       5.000       5.000       5.000       5.000    
  92    5.000       5.000       5.000       5.000       5.000       5.000       5.000       5.000       5.000       5.000    
        5.000       5.000       0.000       5.000       5.000       5.000       5.000       5.000       5.000       5.000    
        5.000       5.000       5.000       5.000       5.000       5.000       5.000       5.000       5.000       5.000    
        5.000       5.000       5.000       5.000       5.000       5.000       5.000       5.000       5.000       5.000    
        5.000       5.000       5.000       5.000       5.000       5.000       5.000       5.000       5.000       5.000    
        5.000       5.000       5.000       5.000       5.000       5.000       5.000       5.000       5.000       5.000    
        5.000       5.000       5.000       5.000       5.000       5.000       5.000       5.000       5.000       5.000    
        5.000       5.000       5.000       5.000       5.000       5.000    
  93    5.000       5.000       5.000       5.000       5.000       5.000       5.000       5.000       5.000       5.000    
        5.000       5.000       0.000       5.000       5.000       5.000       5.000       5.000       5.000       5.000    
        5.000       5.000       5.000       5.000       5.000       5.000       5.000       5.000       5.000       5.000    
        5.000       5.000       5.000       5.000       5.000       5.000       5.000       5.000       5.000       5.000    
        5.000       5.000       5.000       5.000       5.000       5.000       5.000       5.000       5.000       5.000    
        5.000       5.000       5.000       5.000       5.000       5.000       5.000       5.000       5.000       5.000    
        5.000       5.000       5.000       5.000       5.000       5.000       5.000       5.000       5.000       5.000    
        5.000       5.000       5.000       5.000       5.000       5.000    
  94    5.000       5.000       5.000       5.000       5.000       5.000       5.000       5.000       5.000       5.000    
        5.000       0.000       0.000       5.000       5.000       5.000       5.000       5.000       5.000       5.000    
        5.000       5.000       5.000       5.000       5.000       5.000       5.000       5.000       5.000       5.000    
        5.000       5.000       5.000       5.000       5.000       5.000       5.000       5.000       5.000       5.000    
        5.000       5.000       5.000       5.000       5.000       5.000       5.000       5.000       5.000       5.000    
        5.000       5.000       5.000       5.000       5.000       5.000       5.000       5.000       5.000       5.000    
        5.000       5.000       5.000       5.000       5.000       5.000       5.000       5.000       5.000       5.000    
        5.000       5.000       5.000       5.000       5.000       5.000    
  95    5.000       5.000       5.000       5.000       5.000       5.000       5.000       5.000       5.000       5.000    
        5.000       0.000       5.000       5.000       5.000       5.000       5.000       5.000       5.000       5.000    
        5.000       5.000       5.000       5.000       5.000       5.000       5.000       5.000       5.000       5.000    
        5.000       5.000       5.000       5.000       5.000       5.000       5.000       5.000       5.000       5.000    
        5.000       5.000       5.000       5.000       5.000       5.000       5.000       5.000       5.000       5.000    
        5.000       5.000       5.000       5.000       5.000       5.000       5.000       5.000       5.000       5.000    
        5.000       5.000       5.000       5.000       5.000       5.000       5.000       5.000       5.000       5.000    
        5.000       5.000       5.000       5.000       5.000       5.000    
  96    5.000       5.000       5.000       5.000       5.000       5.000       5.000       5.000       5.000       5.000    
        5.000       0.000       5.000       5.000       5.000       5.000       5.000       5.000       5.000       5.000    
        5.000       5.000       5.000       5.000       5.000       5.000       5.000       5.000       5.000       5.000    
        5.000       5.000       5.000       5.000       5.000       5.000       5.000       5.000       5.000       5.000    
        5.000       5.000       5.000       5.000       5.000       5.000       5.000       5.000       5.000       5.000    
        5.000       5.000       5.000       5.000       5.000       5.000       5.000       5.000       5.000       5.000    
        5.000       5.000       5.000       5.000       5.000       5.000       5.000       5.000       5.000       5.000    
        5.000       5.000       5.000       5.000       5.000       5.000    
  97    5.000       5.000       5.000       5.000       5.000       5.000       5.000       5.000       5.000       5.000    
        0.000       0.000       5.000       5.000       5.000       5.000       5.000       5.000       5.000       5.000    
        5.000       5.000       5.000       5.000       5.000       5.000       5.000       5.000       5.000       5.000    
        5.000       5.000       5.000       5.000       5.000       5.000       5.000       5.000       5.000       5.000    
        5.000       5.000       5.000       5.000       5.000       5.000       5.000       5.000       5.000       5.000    
        5.000       5.000       5.000       5.000       5.000       5.000       5.000       5.000       5.000       5.000    
        5.000       5.000       5.000       5.000       5.000       5.000       5.000       5.000       5.000       5.000    
        5.000       5.000       5.000       5.000       5.000       5.000    
  98    5.000       5.000       5.000       5.000       5.000       5.000       5.000       5.000       5.000       5.000    
        0.000       5.000       5.000       5.000       5.000       5.000       5.000       5.000       5.000       5.000    
        5.000       5.000       5.000       5.000       5.000       5.000       5.000       5.000       5.000       5.000    
        5.000       5.000       5.000       5.000       5.000       5.000       5.000       5.000       5.000       5.000    
        5.000       5.000       5.000       5.000       5.000       5.000       5.000       5.000       5.000       5.000    
        5.000       5.000       5.000       5.000       5.000       5.000       5.000       5.000       5.000       5.000    
        5.000       5.000       5.000       5.000       5.000       5.000       5.000       5.000       5.000       5.000    
        5.000       5.000       5.000       5.000       5.000       5.000    
  99    5.000       5.000       5.000       5.000       5.000       5.000       5.000       5.000       5.000       5.000    
        0.000       5.000       5.000       5.000       5.000       5.000       5.000       5.000       5.000       5.000    
        5.000       5.000       5.000       5.000       5.000       5.000       5.000       5.000       5.000       5.000    
        5.000       5.000       5.000       5.000       5.000       5.000       5.000       5.000       5.000       5.000    
        5.000       5.000       5.000       5.000       5.000       5.000       5.000       5.000       5.000       5.000    
        5.000       5.000       5.000       5.000       5.000       5.000       5.000       5.000       5.000       5.000    
        5.000       5.000       5.000       5.000       5.000       5.000       5.000       5.000       5.000       5.000    
        5.000       5.000       5.000       5.000       5.000       5.000    
 100    5.000       5.000       5.000       5.000       5.000       5.000       5.000       5.000       5.000       0.000    
        0.000       5.000       5.000       5.000       5.000       5.000       5.000       5.000       5.000       5.000    
        5.000       5.000       5.000       5.000       5.000       5.000       5.000       5.000       5.000       5.000    
        5.000       5.000       5.000       5.000       5.000       5.000       5.000       5.000       5.000       5.000    
        5.000       5.000       5.000       5.000       5.000       5.000       5.000       5.000       5.000       5.000    
        5.000       5.000       5.000       5.000       5.000       5.000       5.000       5.000       5.000       5.000    
        5.000       5.000       5.000       5.000       5.000       5.000       5.000       5.000       5.000       5.000    
        5.000       5.000       5.000       5.000       5.000       5.000    
 101    5.000       5.000       5.000       5.000       5.000       5.000       5.000       5.000       5.000       0.000    
        5.000       5.000       5.000       5.000       5.000       5.000       5.000       5.000       5.000       5.000    
        5.000       5.000       5.000       5.000       5.000       5.000       5.000       5.000       5.000       5.000    
        5.000       5.000       5.000       5.000       5.000       5.000       5.000       5.000       5.000       5.000    
        5.000       5.000       5.000       5.000       5.000       5.000       5.000       5.000       5.000       5.000    
        5.000       5.000       5.000       5.000       5.000       5.000       5.000       5.000       5.000       5.000    
        5.000       5.000       5.000       5.000       5.000       5.000       5.000       5.000       5.000       5.000    
        5.000       5.000       5.000       5.000       5.000       5.000    
 102    5.000       5.000       5.000       5.000       5.000       5.000       5.000       5.000       5.000       0.000    
        5.000       5.000       5.000       5.000       5.000       5.000       5.000       5.000       5.000       5.000    
        5.000       5.000       5.000       5.000       5.000       5.000       5.000       5.000       5.000       5.000    
        5.000       5.000       5.000       5.000       5.000       5.000       5.000       5.000       5.000       5.000    
        5.000       5.000       5.000       5.000       5.000       5.000       5.000       5.000       5.000       5.000    
        5.000       5.000       5.000       5.000       5.000       5.000       5.000       5.000       5.000       5.000    
        5.000       5.000       5.000       5.000       5.000       5.000       5.000       5.000       5.000       5.000    
        5.000       5.000       5.000       5.000       5.000       5.000    
 103    5.000       5.000       5.000       5.000       5.000       5.000       5.000       5.000       0.000       0.000    
        5.000       5.000       5.000       5.000       5.000       5.000       5.000       5.000       5.000       5.000    
        5.000       5.000       5.000       5.000       5.000       5.000       5.000       5.000       5.000       5.000    
        5.000       5.000       5.000       5.000       5.000       5.000       5.000       5.000       5.000       5.000    
        5.000       5.000       5.000       5.000       5.000       5.000       5.000       5.000       5.000       5.000    
        5.000       5.000       5.000       5.000       5.000       5.000       5.000       5.000       5.000       5.000    
        5.000       5.000       5.000       5.000       5.000       5.000       5.000       5.000       5.000       5.000    
        5.000       5.000       5.000       5.000       5.000       5.000    
 104    5.000       5.000       5.000       5.000       5.000       5.000       5.000       5.000       0.000       0.000    
        5.000       5.000       5.000       5.000       5.000       5.000       5.000       5.000       5.000       5.000    
        5.000       5.000       5.000       5.000       5.000       5.000       5.000       5.000       5.000       5.000    
        5.000       5.000       5.000       5.000       5.000       5.000       5.000       5.000       5.000       5.000    
        5.000       5.000       5.000       5.000       5.000       0.000       0.000       0.000       0.000       0.000    
        0.000       5.000       5.000       5.000       5.000       5.000       5.000       5.000       5.000       5.000    
        5.000       5.000       5.000       5.000       5.000       5.000       5.000       5.000       5.000       5.000    
        5.000       5.000       5.000       5.000       5.000       5.000    
 105    5.000       5.000       5.000       5.000       5.000       5.000       5.000       5.000       0.000       5.000    
        5.000       5.000       5.000       5.000       5.000       5.000       5.000       5.000       5.000       5.000    
        5.000       5.000       5.000       5.000       5.000       5.000       5.000       5.000       5.000       5.000    
        5.000       5.000       5.000       5.000       5.000       5.000       5.000       5.000       5.000       5.000    
        5.000       5.000       0.000       0.000       0.000       0.000       0.000       0.000       0.000       0.000    
        0.000       0.000       0.000       0.000       0.000       0.000       0.000       0.000       5.000       5.000    
        5.000       5.000       5.000       5.000       5.000       5.000       5.000       5.000       5.000       5.000    
        5.000       5.000       5.000       5.000       5.000       5.000    
 106    5.000       5.000       5.000       5.000       5.000       5.000       5.000       5.000       0.000       5.000    
        5.000       5.000       5.000       5.000       5.000       5.000       5.000       5.000       5.000       5.000    
        5.000       5.000       5.000       5.000       5.000       5.000       5.000       5.000       5.000       5.000    
        5.000       5.000       5.000       5.000       5.000       5.000       5.000       5.000       5.000       5.000    
        5.000       5.000       0.000       0.000       0.000       0.000       0.000       0.000       0.000       0.000    
        0.000       0.000       0.000       0.000       0.000       0.000       0.000       0.000       0.000       0.000    
        0.000       0.000       0.000       5.000       5.000       5.000       5.000       5.000       5.000       5.000    
        5.000       5.000       5.000       5.000       5.000       5.000    
 107    5.000       5.000       5.000       5.000       5.000       5.000       5.000       0.000       0.000       5.000    
        5.000       5.000       5.000       5.000       5.000       5.000       5.000       5.000       5.000       5.000    
        5.000       5.000       5.000       5.000       5.000       5.000       5.000       5.000       5.000       5.000    
        5.000       5.000       5.000       5.000       5.000       5.000       5.000       5.000       5.000       5.000    
        5.000       0.000       0.000       0.000       0.000       0.000       0.000       0.000       0.000       0.000    
        0.000       0.000       0.000       0.000       0.000       0.000       0.000       0.000       0.000       0.000    
        0.000       0.000       0.000       0.000       0.000       0.000       0.000       0.000       5.000       5.000    
        5.000       5.000       5.000       5.000       5.000       5.000    
 108    5.000       5.000       5.000       5.000       5.000       5.000       5.000       0.000       5.000       5.000    
        5.000       5.000       5.000       5.000       5.000       5.000       5.000       5.000       5.000       5.000    
        5.000       5.000       5.000       5.000       5.000       5.000       5.000       5.000       5.000       5.000    
        5.000       5.000       5.000       5.000       5.000       5.000       5.000       5.000       5.000       5.000    
        5.000       0.000       0.000       0.000       0.000       0.000       0.000       0.000       0.000       0.000    
        0.000       0.000       0.000       0.000       0.000       0.000       0.000       0.000       0.000       0.000    
        0.000       0.000       0.000       0.000       0.000       0.000       0.000       0.000       0.000       0.000    
        0.000       0.000       5.000       5.000       5.000       5.000    
 109    5.000       5.000       5.000       5.000       5.000       5.000       5.000       0.000       5.000       5.000    
        5.000       5.000       5.000       5.000       5.000       5.000       5.000       5.000       5.000       5.000    
        5.000       5.000       5.000       5.000       5.000       5.000       5.000       5.000       5.000       5.000    
        5.000       5.000       5.000       5.000       5.000       5.000       5.000       5.000       5.000       5.000    
        0.000       0.000       0.000       0.000       0.000       0.000       0.000       0.000       0.000       0.000    
        0.000       0.000       0.000       0.000       0.000       0.000       0.000       0.000       0.000       0.000    
        0.000       0.000       0.000       0.000       0.000       0.000       0.000       0.000       0.000       0.000    
        0.000       0.000       0.000       0.000       0.000       5.000    
 110    5.000       5.000       5.000       5.000       5.000       5.000       0.000       0.000       5.000       5.000    
        5.000       5.000       5.000       5.000       5.000       5.000       5.000       5.000       5.000       5.000    
        5.000       5.000       5.000       5.000       5.000       5.000       5.000       5.000       5.000       5.000    
        5.000       5.000       5.000       5.000       5.000       5.000       5.000       5.000       5.000       5.000    
        0.000       0.000       0.000       0.000       0.000       0.000       0.000       0.000       0.000       0.000    
        0.000       0.000       0.000       0.000       0.000       0.000       0.000       0.000       0.000       0.000    
        0.000       0.000       0.000       0.000       0.000       0.000       0.000       0.000       0.000       0.000    
        0.000       0.000       0.000       0.000       0.000       0.000    
 111    5.000       5.000       5.000       5.000       5.000       5.000       0.000       5.000       5.000       5.000    
        5.000       5.000       5.000       5.000       5.000       5.000       5.000       5.000       5.000       5.000    
        5.000       5.000       5.000       5.000       5.000       5.000       5.000       5.000       5.000       5.000    
        5.000       5.000       5.000       5.000       5.000       5.000       5.000       5.000       5.000       0.000    
        0.000       0.000       0.000       0.000       0.000       0.000       0.000       0.000       0.000       0.000    
        0.000       0.000       0.000       0.000       0.000       0.000       0.000       0.000       0.000       0.000    
        0.000       0.000       0.000       0.000       0.000       0.000       0.000       0.000       0.000       0.000    
        0.000       0.000       0.000       0.000       0.000       0.000    
 112    5.000       5.000       5.000       5.000       5.000       5.000       0.000       5.000       5.000       5.000    
        5.000       5.000       5.000       5.000       5.000       5.000       5.000       5.000       5.000       5.000    
        5.000       5.000       5.000       5.000       5.000       5.000       5.000       5.000       5.000       5.000    
        5.000       5.000       5.000       5.000       5.000       5.000       5.000       5.000       5.000       0.000    
        0.000       0.000       0.000       0.000       0.000       0.000       0.000       0.000       0.000       0.000    
        0.000       0.000       0.000       0.000       0.000       0.000       0.000       0.000       0.000       0.000    
        0.000       0.000       0.000       0.000       0.000       0.000       0.000       0.000       0.000       0.000    
        0.000       0.000       0.000       0.000       0.000       0.000    
 113    5.000       5.000       5.000       5.000       5.000       0.000       0.000       5.000       5.000       5.000    
        5.000       5.000       5.000       5.000       5.000       5.000       5.000       5.000       5.000       5.000    
        5.000       5.000       5.000       5.000       5.000       5.000       5.000       5.000       5.000       5.000    
        5.000       5.000       5.000       5.000       5.000       5.000       5.000       5.000       0.000       0.000    
        0.000       0.000       0.000       0.000       0.000       0.000       0.000       0.000       0.000       0.000    
        0.000       0.000       0.000       0.000       0.000       0.000       0.000       0.000       0.000       0.000    
        0.000       0.000       0.000       0.000       0.000       0.000       0.000       0.000       0.000       0.000    
        0.000       0.000       0.000       0.000       0.000       0.000    
 114    5.000       5.000       5.000       5.000       5.000       0.000       5.000       5.000       5.000       5.000    
        5.000       5.000       5.000       5.000       5.000       5.000       5.000       5.000       5.000       5.000    
        5.000       5.000       5.000       5.000       5.000       5.000       5.000       5.000       5.000       5.000    
        5.000       5.000       5.000       5.000       5.000       5.000       5.000       5.000       0.000       0.000    
        0.000       0.000       0.000       0.000       0.000       0.000       0.000       0.000       0.000       0.000    
        0.000       0.000       0.000       0.000       0.000       0.000       0.000       0.000       0.000       0.000    
        0.000       0.000       0.000       0.000       0.000       0.000       0.000       0.000       0.000       0.000    
        0.000       0.000       0.000       0.000       0.000       0.000    
 115    5.000       5.000       5.000       5.000       5.000       0.000       5.000       5.000       5.000       5.000    
        5.000       5.000       5.000       5.000       5.000       5.000       5.000       5.000       5.000       5.000    
        5.000       5.000       5.000       5.000       5.000       5.000       5.000       5.000       5.000       5.000    
        5.000       5.000       5.000       5.000       5.000       5.000       5.000       5.000       5.000       0.000    
        0.000       0.000       0.000       0.000       0.000       0.000       0.000       0.000       0.000       0.000    
        0.000       0.000       0.000       0.000       0.000       0.000       0.000       0.000       0.000       0.000    
        0.000       0.000       0.000       0.000       0.000       0.000       0.000       0.000       0.000       0.000    
        0.000       0.000       0.000       0.000       0.000       0.000    
 116    5.000       5.000       5.000       5.000       0.000       0.000       5.000       5.000       5.000       5.000    
        5.000       5.000       5.000       5.000       5.000       5.000       5.000       5.000       5.000       5.000    
        5.000       5.000       5.000       5.000       5.000       5.000       5.000       5.000       5.000       5.000    
        5.000       5.000       5.000       5.000       5.000       5.000       5.000       5.000       5.000       0.000    
        0.000       0.000       0.000       0.000       0.000       0.000       0.000       0.000       0.000       0.000    
        0.000       0.000       0.000       0.000       0.000       0.000       0.000       0.000       0.000       0.000    
        0.000       0.000       0.000       0.000       0.000       0.000       0.000       0.000       0.000       0.000    
        0.000       0.000       0.000       0.000       0.000       0.000    
 117    5.000       5.000       5.000       5.000       0.000       5.000       5.000       5.000       5.000       5.000    
        5.000       5.000       5.000       5.000       5.000       5.000       5.000       5.000       5.000       5.000    
        5.000       5.000       5.000       5.000       5.000       5.000       5.000       5.000       5.000       5.000    
        5.000       5.000       5.000       5.000       5.000       5.000       5.000       5.000       5.000       5.000    
        0.000       0.000       0.000       0.000       0.000       0.000       0.000       0.000       0.000       0.000    
        0.000       0.000       0.000       0.000       0.000       0.000       0.000       0.000       0.000       0.000    
        0.000       0.000       0.000       0.000       0.000       0.000       0.000       0.000       0.000       0.000    
        0.000       0.000       0.000       0.000       0.000       0.000    
 118    5.000       5.000       5.000       5.000       0.000       5.000       5.000       5.000       5.000       5.000    
        5.000       5.000       5.000       5.000       5.000       5.000       5.000       5.000       5.000       5.000    
        5.000       5.000       5.000       5.000       5.000       5.000       5.000       5.000       5.000       5.000    
        5.000       5.000       5.000       5.000       5.000       5.000       5.000       5.000       5.000       5.000    
        0.000       0.000       0.000       0.000       0.000       0.000       0.000       0.000       0.000       0.000    
        0.000       0.000       0.000       0.000       0.000       0.000       0.000       0.000       0.000       0.000    
        0.000       0.000       0.000       0.000       0.000       0.000       0.000       0.000       0.000       0.000    
        0.000       0.000       0.000       0.000       0.000       0.000    
 119    5.000       5.000       5.000       5.000       0.000       5.000       5.000       5.000       5.000       5.000    
        5.000       5.000       5.000       5.000       5.000       5.000       5.000       5.000       5.000       5.000    
        5.000       5.000       5.000       5.000       5.000       5.000       5.000       5.000       5.000       5.000    
        5.000       5.000       5.000       5.000       5.000       5.000       5.000       5.000       5.000       5.000    
        5.000       0.000       0.000       0.000       0.000       0.000       0.000       0.000       0.000       0.000    
        0.000       0.000       0.000       0.000       0.000       0.000       0.000       0.000       0.000       0.000    
        0.000       0.000       0.000       0.000       0.000       0.000       0.000       0.000       0.000       0.000    
        0.000       0.000       0.000       0.000       0.000       0.000    
 120    5.000       5.000       5.000       0.000       5.000       5.000       5.000       5.000       5.000       5.000    
        5.000       5.000       5.000       5.000       5.000       5.000       5.000       5.000       5.000       5.000    
        5.000       5.000       5.000       5.000       5.000       5.000       5.000       5.000       5.000       5.000    
        5.000       5.000       5.000       5.000       5.000       5.000       5.000       5.000       5.000       5.000    
        5.000       0.000       0.000       0.000       0.000       0.000       0.000       0.000       0.000       0.000    
        0.000       0.000       0.000       0.000       0.000       0.000       0.000       0.000       0.000       0.000    
        0.000       0.000       0.000       0.000       0.000       0.000       0.000       0.000       0.000       0.000    
        0.000       0.000       0.000       0.000       0.000       0.000    
 121    5.000       5.000       5.000       0.000       5.000       5.000       5.000       5.000       5.000       5.000    
        5.000       5.000       5.000       5.000       5.000       5.000       5.000       5.000       5.000       5.000    
        5.000       5.000       5.000       5.000       5.000       5.000       5.000       5.000       5.000       5.000    
        5.000       5.000       5.000       5.000       5.000       5.000       5.000       5.000       5.000       5.000    
        5.000       5.000       0.000       0.000       0.000       0.000       0.000       0.000       0.000       0.000    
        0.000       0.000       0.000       0.000       0.000       0.000       0.000       0.000       0.000       0.000    
        0.000       0.000       0.000       0.000       0.000       0.000       0.000       0.000       0.000       0.000    
        0.000       0.000       0.000       0.000       0.000       0.000    
 122    5.000       5.000       5.000       0.000       5.000       5.000       5.000       5.000       5.000       5.000    
        5.000       5.000       5.000       5.000       5.000       5.000       5.000       5.000       5.000       5.000    
        5.000       5.000       5.000       5.000       5.000       5.000       5.000       5.000       5.000       5.000    
        5.000       5.000       5.000       5.000       5.000       5.000       5.000       5.000       5.000       5.000    
        5.000       5.000       5.000       0.000       0.000       0.000       0.000       0.000       0.000       0.000    
        0.000       0.000       0.000       0.000       0.000       0.000       0.000       0.000       0.000       0.000    
        0.000       0.000       0.000       0.000       0.000       0.000       0.000       0.000       0.000       0.000    
        0.000       0.000       0.000       0.000       0.000       0.000    
 123    5.000       5.000       0.000       5.000       5.000       5.000       5.000       5.000       5.000       5.000    
        5.000       5.000       5.000       5.000       5.000       5.000       5.000       5.000       5.000       5.000    
        5.000       5.000       5.000       5.000       5.000       5.000       5.000       5.000       5.000       5.000    
        5.000       5.000       5.000       5.000       5.000       5.000       5.000       5.000       5.000       5.000    
        5.000       5.000       5.000       0.000       0.000       0.000       0.000       0.000       0.000       0.000    
        0.000       0.000       0.000       0.000       0.000       0.000       0.000       0.000       0.000       0.000    
        0.000       0.000       0.000       0.000       0.000       0.000       0.000       0.000       0.000       0.000    
        0.000       0.000       0.000       0.000       0.000       0.000    
 124    5.000       5.000       0.000       5.000       5.000       5.000       5.000       5.000       5.000       5.000    
        5.000       5.000       5.000       5.000       5.000       5.000       5.000       5.000       5.000       5.000    
        5.000       5.000       5.000       5.000       5.000       5.000       5.000       5.000       5.000       5.000    
        5.000       5.000       5.000       5.000       5.000       5.000       5.000       5.000       5.000       5.000    
        5.000       5.000       5.000       5.000       0.000       0.000       0.000       0.000       0.000       0.000    
        0.000       0.000       0.000       0.000       0.000       0.000       0.000       0.000       0.000       0.000    
        0.000       0.000       0.000       0.000       0.000       0.000       0.000       0.000       0.000       0.000    
        0.000       0.000       0.000       0.000       0.000       0.000    
 125    5.000       5.000       5.000       5.000       5.000       5.000       5.000       5.000       5.000       5.000    
        5.000       5.000       5.000       5.000       5.000       5.000       5.000       5.000       5.000       5.000    
        5.000       5.000       5.000       5.000       5.000       5.000       5.000       5.000       5.000       5.000    
        5.000       5.000       5.000       5.000       5.000       5.000       5.000       5.000       5.000       5.000    
        5.000       5.000       5.000       5.000       5.000       0.000       0.000       0.000       0.000       0.000    
        0.000       0.000       0.000       0.000       0.000       0.000       0.000       0.000       0.000       0.000    
        0.000       0.000       0.000       0.000       0.000       0.000       0.000       0.000       0.000       0.000    
        0.000       0.000       0.000       0.000       0.000       0.000    
 126    5.000       5.000       5.000       5.000       5.000       5.000       5.000       5.000       5.000       5.000    
        5.000       5.000       5.000       5.000       5.000       5.000       5.000       5.000       5.000       5.000    
        5.000       5.000       5.000       5.000       5.000       5.000       5.000       5.000       5.000       5.000    
        5.000       5.000       5.000       5.000       5.000       5.000       5.000       5.000       5.000       5.000    
        5.000       5.000       5.000       5.000       5.000       0.000       0.000       0.000       0.000       0.000    
        0.000       0.000       0.000       0.000       0.000       0.000       0.000       0.000       0.000       0.000    
        0.000       0.000       0.000       0.000       0.000       0.000       0.000       0.000       0.000       0.000    
        0.000       0.000       0.000       0.000       0.000       0.000    
 127    5.000       5.000       5.000       5.000       5.000       5.000       5.000       5.000       5.000       5.000    
        5.000       5.000       5.000       5.000       5.000       5.000       5.000       5.000       5.000       5.000    
        5.000       5.000       5.000       5.000       5.000       5.000       5.000       5.000       5.000       5.000    
        5.000       5.000       5.000       5.000       5.000       5.000       5.000       5.000       5.000       5.000    
        5.000       5.000       5.000       5.000       5.000       5.000       0.000       0.000       0.000       0.000    
        0.000       0.000       0.000       0.000       0.000       0.000       0.000       0.000       0.000       0.000    
        0.000       0.000       0.000       0.000       0.000       0.000       0.000       0.000       0.000       0.000    
        0.000       0.000       0.000       0.000       0.000       0.000    
 128    5.000       5.000       5.000       5.000       5.000       5.000       5.000       5.000       5.000       5.000    
        5.000       5.000       5.000       5.000       5.000       5.000       5.000       5.000       5.000       5.000    
        5.000       5.000       5.000       5.000       5.000       5.000       5.000       5.000       5.000       5.000    
        5.000       5.000       5.000       5.000       5.000       5.000       5.000       5.000       5.000       5.000    
        5.000       5.000       5.000       5.000       5.000       5.000       5.000       0.000       0.000       0.000    
        0.000       0.000       0.000       0.000       0.000       0.000       0.000       0.000       0.000       0.000    
        0.000       0.000       0.000       0.000       0.000       0.000       0.000       0.000       0.000       0.000    
        0.000       0.000       0.000       0.000       0.000       0.000    
 129    5.000       5.000       5.000       5.000       5.000       5.000       5.000       5.000       5.000       5.000    
        5.000       5.000       5.000       5.000       5.000       5.000       5.000       5.000       5.000       5.000    
        5.000       5.000       5.000       5.000       5.000       5.000       5.000       5.000       5.000       5.000    
        5.000       5.000       5.000       5.000       5.000       5.000       5.000       5.000       5.000       5.000    
        5.000       5.000       5.000       5.000       5.000       5.000       5.000       5.000       0.000       0.000    
        0.000       0.000       0.000       0.000       0.000       0.000       0.000       0.000       0.000       0.000    
        0.000       0.000       0.000       0.000       0.000       0.000       0.000       0.000       0.000       0.000    
        0.000       0.000       0.000       0.000       0.000       0.000    
 130    5.000       5.000       5.000       5.000       5.000       5.000       5.000       5.000       5.000       5.000    
        5.000       5.000       5.000       5.000       5.000       5.000       5.000       5.000       5.000       5.000    
        5.000       5.000       5.000       5.000       5.000       5.000       5.000       5.000       5.000       5.000    
        5.000       5.000       5.000       5.000       5.000       5.000       5.000       5.000       5.000       5.000    
        5.000       5.000       5.000       5.000       5.000       5.000       5.000       5.000       5.000       0.000    
        0.000       0.000       0.000       0.000       0.000       0.000       0.000       0.000       0.000       0.000    
        0.000       0.000       0.000       0.000       0.000       0.000       0.000       0.000       0.000       0.000    
        0.000       0.000       0.000       0.000       0.000       0.000    
 131    5.000       5.000       5.000       5.000       5.000       5.000       5.000       5.000       5.000       5.000    
        5.000       0.000       0.000       0.000       0.000       0.000       0.000       5.000       5.000       5.000    
        5.000       5.000       5.000       5.000       5.000       5.000       5.000       5.000       5.000       5.000    
        5.000       5.000       5.000       5.000       5.000       5.000       5.000       5.000       5.000       5.000    
        0.000       0.000       0.000       0.000       0.000       5.000       5.000       5.000       5.000       0.000    
        0.000       0.000       0.000       0.000       0.000       0.000       0.000       0.000       0.000       0.000    
        0.000       0.000       0.000       0.000       0.000       0.000       0.000       0.000       0.000       0.000    
        0.000       0.000       0.000       0.000       0.000       0.000    

   HORIZ. ANI. (COL./ROW) =   1.00000     FOR LAYER   1



                VERTICAL HYD. COND. FOR LAYER   1
 READING ON UNIT 5134 WITH FORMAT: (FREE)              

            1           2           3           4           5           6           7           8           9          10
           11          12          13          14          15          16          17          18          19          20
           21          22          23          24          25          26          27          28          29          30
           31          32          33          34          35          36          37          38          39          40
           41          42          43          44          45          46          47          48          49          50
           51          52          53          54          55          56          57          58          59          60
           61          62          63          64          65          66          67          68          69          70
           71          72          73          74          75          76
 ........................................................................................................................
   1    0.000       0.000       0.000       0.000       0.000       0.000       0.000       0.000       0.000       0.000    
        0.000       0.000       0.000       0.000       0.000       0.000       0.000       0.000       0.000       0.000    
        0.000       0.000       0.000       0.000       0.000       0.000       0.000       0.000       0.000       0.000    
        0.000       0.000       0.000       0.000       0.000       0.000       0.000       0.000       0.000       0.000    
        0.000       0.000       0.000       0.000       0.000       0.000       0.000       0.000       0.000       0.000    
        0.000      1.0000E-04  1.0000E-04   0.000       0.000       0.000       0.000       0.000       0.000       0.000    
        0.000       0.000       0.000       0.000       0.000       0.000       0.000       0.000       0.000       0.000    
        0.000      1.0000E-04  1.0000E-04  1.0000E-04   0.000      1.0000E-04
   2    0.000       0.000       0.000       0.000       0.000       0.000       0.000       0.000       0.000       0.000    
        0.000       0.000       0.000       0.000       0.000       0.000       0.000       0.000       0.000       0.000    
        0.000       0.000       0.000       0.000       0.000       0.000       0.000       0.000       0.000       0.000    
        0.000       0.000       0.000       0.000       0.000       0.000       0.000       0.000       0.000       0.000    
        0.000       0.000       0.000       0.000       0.000       0.000       0.000       0.000       0.000       0.000    
        0.000      1.0000E-04  1.0000E-04  1.0000E-04   0.000       0.000       0.000       0.000       0.000       0.000    
        0.000       0.000       0.000       0.000       0.000       0.000       0.000      1.0000E-04  1.0000E-04  1.0000E-04
       1.0000E-04  1.0000E-04  1.0000E-04  1.0000E-04  1.0000E-04  1.0000E-04
   3    0.000       0.000       0.000       0.000       0.000       0.000       0.000       0.000       0.000       0.000    
        0.000       0.000       0.000       0.000       0.000       0.000       0.000       0.000       0.000       0.000    
        0.000       0.000       0.000       0.000       0.000       0.000       0.000       0.000       0.000       0.000    
        0.000       0.000       0.000       0.000       0.000       0.000       0.000       0.000       0.000       0.000    
        0.000       0.000       0.000       0.000       0.000       0.000       0.000       0.000       0.000       0.000    
        0.000      1.0000E-04  1.0000E-04  1.0000E-04   0.000       0.000       0.000       0.000       0.000       0.000    
        0.000       0.000      1.0000E-04  1.0000E-04  1.0000E-04  1.0000E-04  1.0000E-04  1.0000E-04  1.0000E-04  1.0000E-04
       1.0000E-04  1.0000E-04  1.0000E-04  1.0000E-04  1.0000E-04  1.0000E-04
   4    0.000       0.000       0.000       0.000       0.000       0.000       0.000       0.000       0.000       0.000    
        0.000       0.000       0.000       0.000       0.000       0.000       0.000       0.000       0.000       0.000    
        0.000       0.000       0.000       0.000       0.000       0.000       0.000       0.000       0.000       0.000    
        0.000       0.000       0.000       0.000       0.000       0.000       0.000       0.000       0.000       0.000    
        0.000       0.000       0.000       0.000       0.000       0.000       0.000       0.000       0.000       0.000    
       1.0000E-04  1.0000E-04  1.0000E-04  1.0000E-04  1.0000E-04   0.000       0.000      1.0000E-04  1.0000E-04  1.0000E-04
       1.0000E-04  1.0000E-04  1.0000E-04  1.0000E-04  1.0000E-04  1.0000E-04  1.0000E-04  1.0000E-04  1.0000E-04  1.0000E-04
       1.0000E-04  1.0000E-04  1.0000E-04  1.0000E-04  1.0000E-04  1.0000E-04
   5    0.000       0.000       0.000       0.000       0.000       0.000       0.000       0.000       0.000       0.000    
        0.000       0.000       0.000       0.000       0.000       0.000       0.000       0.000       0.000       0.000    
        0.000       0.000       0.000       0.000       0.000       0.000       0.000       0.000       0.000       0.000    
        0.000       0.000       0.000       0.000       0.000       0.000       0.000       0.000       0.000       0.000    
        0.000       0.000       0.000       0.000       0.000       0.000       0.000       0.000       0.000       0.000    
       1.0000E-04  1.0000E-04  1.0000E-04  1.0000E-04  1.0000E-04  1.0000E-04  1.0000E-04  1.0000E-04  1.0000E-04  1.0000E-04
       1.0000E-04  1.0000E-04  1.0000E-04  1.0000E-04  1.0000E-04  1.0000E-04  1.0000E-04  1.0000E-04  1.0000E-04  1.0000E-04
       1.0000E-04  1.0000E-04  1.0000E-04  1.0000E-04  1.0000E-04   0.000    
   6    0.000       0.000       0.000       0.000       0.000       0.000       0.000       0.000       0.000       0.000    
        0.000       0.000       0.000       0.000       0.000       0.000       0.000       0.000       0.000       0.000    
        0.000       0.000       0.000       0.000       0.000       0.000       0.000       0.000       0.000       0.000    
        0.000       0.000       0.000       0.000       0.000       0.000       0.000       0.000       0.000       0.000    
        0.000       0.000       0.000       0.000       0.000       0.000       0.000       0.000       0.000      1.0000E-04
       1.0000E-04  1.0000E-04  1.0000E-04  1.0000E-04  1.0000E-04  1.0000E-04  1.0000E-04  1.0000E-04  1.0000E-04  1.0000E-04
       1.0000E-04  1.0000E-04  1.0000E-04  1.0000E-04  1.0000E-04  1.0000E-04  1.0000E-04  1.0000E-04  1.0000E-04  1.0000E-04
       1.0000E-04  1.0000E-04  1.0000E-04  1.0000E-04  1.0000E-04   0.000    
   7    0.000       0.000       0.000       0.000       0.000       0.000       0.000       0.000       0.000       0.000    
        0.000       0.000       0.000       0.000       0.000       0.000       0.000       0.000       0.000       0.000    
        0.000       0.000       0.000       0.000       0.000       0.000       0.000       0.000       0.000       0.000    
        0.000       0.000       0.000       0.000       0.000       0.000       0.000       0.000       0.000       0.000    
        0.000       0.000       0.000       0.000       0.000       0.000       0.000       0.000       0.000      1.0000E-04
       1.0000E-04  1.0000E-04  1.0000E-04  1.0000E-04  1.0000E-04  1.0000E-04  1.0000E-04  1.0000E-04  1.0000E-04  1.0000E-04
       1.0000E-04  1.0000E-04  1.0000E-04  1.0000E-04  1.0000E-04  1.0000E-04  1.0000E-04  1.0000E-04  1.0000E-04  1.0000E-04
       1.0000E-04  1.0000E-04  1.0000E-04  1.0000E-04  1.0000E-04   0.000    
   8    0.000       0.000       0.000       0.000       0.000       0.000       0.000       0.000       0.000       0.000    
        0.000       0.000       0.000       0.000       0.000       0.000       0.000       0.000       0.000       0.000    
        0.000       0.000       0.000       0.000       0.000       0.000       0.000       0.000       0.000       0.000    
        0.000       0.000       0.000       0.000       0.000       0.000       0.000       0.000       0.000       0.000    
        0.000       0.000       0.000       0.000       0.000       0.000       0.000       0.000      1.0000E-04  1.0000E-04
       1.0000E-04  1.0000E-04  1.0000E-04  1.0000E-04  1.0000E-04  1.0000E-04  1.0000E-04  1.0000E-04  1.0000E-04  1.0000E-04
       1.0000E-04  1.0000E-04  1.0000E-04  1.0000E-04  1.0000E-04  1.0000E-04  1.0000E-04  1.0000E-04  1.0000E-04  1.0000E-04
       1.0000E-04  1.0000E-04  1.0000E-04  1.0000E-04  1.0000E-04  1.0000E-04
   9    0.000       0.000       0.000       0.000       0.000       0.000       0.000       0.000       0.000       0.000    
        0.000       0.000       0.000       0.000       0.000       0.000       0.000       0.000       0.000       0.000    
        0.000       0.000       0.000       0.000       0.000       0.000       0.000       0.000       0.000       0.000    
        0.000       0.000       0.000       0.000       0.000       0.000       0.000       0.000       0.000       0.000    
        0.000       0.000       0.000       0.000       0.000       0.000       0.000      1.0000E-04  1.0000E-04  1.0000E-04
       1.0000E-04  1.0000E-04  1.0000E-04  1.0000E-04  1.0000E-04  1.0000E-04  1.0000E-04  1.0000E-04  1.0000E-04  1.0000E-04
       1.0000E-04  1.0000E-04  1.0000E-04  1.0000E-04  1.0000E-04  1.0000E-04  1.0000E-04  1.0000E-04  1.0000E-04  1.0000E-04
       1.0000E-04  1.0000E-04  1.0000E-04  1.0000E-04  1.0000E-04  1.0000E-04
  10    0.000       0.000       0.000       0.000       0.000       0.000       0.000       0.000       0.000       0.000    
        0.000       0.000       0.000       0.000       0.000       0.000       0.000       0.000       0.000       0.000    
        0.000       0.000       0.000       0.000       0.000       0.000       0.000       0.000       0.000       0.000    
        0.000       0.000       0.000       0.000       0.000       0.000       0.000       0.000       0.000       0.000    
        0.000       0.000       0.000       0.000       0.000       0.000      1.0000E-04  1.0000E-04  1.0000E-04  1.0000E-04
       1.0000E-04  1.0000E-04  1.0000E-04  1.0000E-04  1.0000E-04  1.0000E-04  1.0000E-04  1.0000E-04  1.0000E-04  1.0000E-04
       1.0000E-04  1.0000E-04  1.0000E-04  1.0000E-04  1.0000E-04  1.0000E-04  1.0000E-04  1.0000E-04  1.0000E-04  1.0000E-04
       1.0000E-04  1.0000E-04  1.0000E-04  1.0000E-04  1.0000E-04  1.0000E-04
  11    0.000       0.000       0.000       0.000       0.000       0.000       0.000       0.000       0.000       0.000    
        0.000       0.000       0.000       0.000       0.000       0.000       0.000       0.000       0.000       0.000    
        0.000       0.000       0.000       0.000       0.000       0.000       0.000       0.000       0.000       0.000    
        0.000       0.000       0.000       0.000       0.000       0.000       0.000       0.000       0.000       0.000    
        0.000       0.000       0.000       0.000       0.000      1.0000E-04  1.0000E-04  1.0000E-04  1.0000E-04  1.0000E-04
       1.0000E-04  1.0000E-04  1.0000E-04  1.0000E-04  1.0000E-04  1.0000E-04  1.0000E-04  1.0000E-04  1.0000E-04  1.0000E-04
       1.0000E-04  1.0000E-04  1.0000E-04  1.0000E-04  1.0000E-04  1.0000E-04  1.0000E-04  1.0000E-04  1.0000E-04  1.0000E-04
       1.0000E-04  1.0000E-04  1.0000E-04  1.0000E-04  1.0000E-04   0.000    
  12    0.000       0.000       0.000       0.000       0.000       0.000       0.000       0.000       0.000       0.000    
        0.000       0.000       0.000       0.000       0.000       0.000       0.000       0.000       0.000       0.000    
        0.000       0.000       0.000       0.000       0.000       0.000       0.000       0.000       0.000       0.000    
        0.000       0.000       0.000       0.000       0.000       0.000       0.000       0.000       0.000       0.000    
        0.000       0.000       0.000       0.000      1.0000E-04  1.0000E-04  1.0000E-04  1.0000E-04  1.0000E-04  1.0000E-04
       1.0000E-04  1.0000E-04  1.0000E-04  1.0000E-04  1.0000E-04  1.0000E-04  1.0000E-04  1.0000E-04  1.0000E-04  1.0000E-04
       1.0000E-04  1.0000E-04  1.0000E-04  1.0000E-04  1.0000E-04  1.0000E-04  1.0000E-04  1.0000E-04  1.0000E-04  1.0000E-04
       1.0000E-04  1.0000E-04  1.0000E-04  1.0000E-04  1.0000E-04   0.000    
  13    0.000       0.000       0.000       0.000       0.000       0.000       0.000       0.000       0.000       0.000    
        0.000       0.000       0.000       0.000       0.000       0.000       0.000       0.000       0.000       0.000    
        0.000       0.000       0.000       0.000       0.000       0.000       0.000       0.000       0.000       0.000    
        0.000       0.000       0.000       0.000       0.000       0.000       0.000       0.000       0.000       0.000    
        0.000       0.000       0.000      1.0000E-04  1.0000E-04  1.0000E-04  1.0000E-04  1.0000E-04  1.0000E-04  1.0000E-04
       1.0000E-04  1.0000E-04  1.0000E-04  1.0000E-04  1.0000E-04  1.0000E-04  1.0000E-04  1.0000E-04  1.0000E-04  1.0000E-04
       1.0000E-04  1.0000E-04  1.0000E-04  1.0000E-04  1.0000E-04  1.0000E-04  1.0000E-04  1.0000E-04  1.0000E-04  1.0000E-04
       1.0000E-04  1.0000E-04  1.0000E-04  1.0000E-04  1.0000E-04   0.000    
  14    0.000       0.000       0.000       0.000       0.000       0.000       0.000       0.000       0.000       0.000    
        0.000       0.000       0.000       0.000       0.000       0.000       0.000       0.000       0.000       0.000    
        0.000       0.000       0.000       0.000       0.000       0.000       0.000       0.000       0.000       0.000    
        0.000       0.000       0.000       0.000       0.000       0.000       0.000       0.000       0.000       0.000    
        0.000       0.000      1.0000E-04  1.0000E-04  1.0000E-04  1.0000E-04  1.0000E-04  1.0000E-04  1.0000E-04  1.0000E-04
       1.0000E-04  1.0000E-04  1.0000E-04  1.0000E-04  1.0000E-04  1.0000E-04  1.0000E-04  1.0000E-04  1.0000E-04  1.0000E-04
       1.0000E-04  1.0000E-04  1.0000E-04  1.0000E-04  1.0000E-04  1.0000E-04  1.0000E-04  1.0000E-04  1.0000E-04  1.0000E-04
       1.0000E-04  1.0000E-04  1.0000E-04  1.0000E-04  1.0000E-04  1.0000E-04
  15    0.000       0.000       0.000       0.000       0.000       0.000       0.000       0.000       0.000       0.000    
        0.000       0.000       0.000       0.000       0.000       0.000       0.000       0.000       0.000       0.000    
        0.000       0.000       0.000       0.000       0.000       0.000       0.000       0.000       0.000       0.000    
        0.000       0.000       0.000       0.000       0.000       0.000       0.000       0.000       0.000       0.000    
        0.000      1.0000E-04  1.0000E-04  1.0000E-04  1.0000E-04  1.0000E-04  1.0000E-04  1.0000E-04  1.0000E-04  1.0000E-04
       1.0000E-04  1.0000E-04  1.0000E-04  1.0000E-04  1.0000E-04  1.0000E-04  1.0000E-04  1.0000E-04  1.0000E-04  1.0000E-04
       1.0000E-04  1.0000E-04  1.0000E-04  1.0000E-04  1.0000E-04  1.0000E-04  1.0000E-04  1.0000E-04  1.0000E-04  1.0000E-04
       1.0000E-04  1.0000E-04  1.0000E-04  1.0000E-04  1.0000E-04  1.0000E-04
  16    0.000       0.000       0.000       0.000       0.000       0.000       0.000       0.000       0.000       0.000    
        0.000       0.000       0.000       0.000       0.000       0.000       0.000       0.000       0.000       0.000    
        0.000       0.000       0.000       0.000       0.000       0.000       0.000       0.000       0.000       0.000    
        0.000       0.000       0.000       0.000       0.000       0.000       0.000       0.000       0.000       0.000    
       1.0000E-04  1.0000E-04  1.0000E-04  1.0000E-04  1.0000E-04  1.0000E-04  1.0000E-04  1.0000E-04  1.0000E-04  1.0000E-04
       1.0000E-04  1.0000E-04  1.0000E-04  1.0000E-04  1.0000E-04  1.0000E-04  1.0000E-04  1.0000E-04  1.0000E-04  1.0000E-04
       1.0000E-04  1.0000E-04  1.0000E-04  1.0000E-04  1.0000E-04  1.0000E-04  1.0000E-04  1.0000E-04  1.0000E-04  1.0000E-04
       1.0000E-04  1.0000E-04  1.0000E-04  1.0000E-04  1.0000E-04   0.000    
  17    0.000       0.000       0.000       0.000       0.000       0.000       0.000       0.000       0.000       0.000    
        0.000       0.000       0.000       0.000       0.000       0.000       0.000       0.000       0.000       0.000    
        0.000       0.000       0.000       0.000       0.000       0.000       0.000       0.000       0.000       0.000    
        0.000       0.000       0.000       0.000       0.000       0.000       0.000       0.000       0.000      1.0000E-04
       1.0000E-04  1.0000E-04  1.0000E-04  1.0000E-04  1.0000E-04  1.0000E-04  1.0000E-04  1.0000E-04  1.0000E-04  1.0000E-04
       1.0000E-04  1.0000E-04  1.0000E-04  1.0000E-04  1.0000E-04  1.0000E-04  1.0000E-04  1.0000E-04  1.0000E-04  1.0000E-04
       1.0000E-04  1.0000E-04  1.0000E-04  1.0000E-04  1.0000E-04  1.0000E-04  1.0000E-04  1.0000E-04  1.0000E-04  1.0000E-04
       1.0000E-04  1.0000E-04  1.0000E-04  1.0000E-04  1.0000E-04  1.0000E-04
  18    0.000       0.000       0.000       0.000       0.000       0.000       0.000       0.000       0.000       0.000    
        0.000       0.000       0.000       0.000       0.000       0.000       0.000       0.000       0.000       0.000    
        0.000       0.000       0.000       0.000       0.000       0.000       0.000       0.000       0.000       0.000    
        0.000       0.000       0.000       0.000       0.000       0.000       0.000       0.000      1.0000E-04  1.0000E-04
       1.0000E-04  1.0000E-04  1.0000E-04  1.0000E-04  1.0000E-04  1.0000E-04  1.0000E-04  1.0000E-04  1.0000E-04  1.0000E-04
       1.0000E-04  1.0000E-04  1.0000E-04  1.0000E-04  1.0000E-04  1.0000E-04  1.0000E-04  1.0000E-04  1.0000E-04  1.0000E-04
       1.0000E-04  1.0000E-04  1.0000E-04  1.0000E-04  1.0000E-04  1.0000E-04  1.0000E-04  1.0000E-04  1.0000E-04  1.0000E-04
       1.0000E-04  1.0000E-04  1.0000E-04  1.0000E-04  1.0000E-04  1.0000E-04
  19    0.000       0.000       0.000       0.000       0.000       0.000       0.000       0.000       0.000       0.000    
        0.000       0.000       0.000       0.000       0.000       0.000       0.000       0.000       0.000       0.000    
        0.000       0.000       0.000       0.000       0.000       0.000       0.000       0.000       0.000       0.000    
        0.000       0.000       0.000       0.000       0.000       0.000       0.000      1.0000E-04  1.0000E-04  1.0000E-04
       1.0000E-04  1.0000E-04  1.0000E-04  1.0000E-04  1.0000E-04  1.0000E-04  1.0000E-04  1.0000E-04  1.0000E-04  1.0000E-04
       1.0000E-04  1.0000E-04  1.0000E-04  1.0000E-04  1.0000E-04  1.0000E-04  1.0000E-04  1.0000E-04  1.0000E-04  1.0000E-04
       1.0000E-04  1.0000E-04  1.0000E-04  1.0000E-04  1.0000E-04  1.0000E-04  1.0000E-04  1.0000E-04  1.0000E-04  1.0000E-04
       1.0000E-04  1.0000E-04  1.0000E-04  1.0000E-04  1.0000E-04  1.0000E-04
  20    0.000       0.000       0.000       0.000       0.000       0.000       0.000       0.000       0.000       0.000    
        0.000       0.000       0.000       0.000       0.000       0.000       0.000       0.000       0.000       0.000    
        0.000       0.000       0.000       0.000       0.000       0.000       0.000       0.000       0.000       0.000    
        0.000       0.000       0.000       0.000       0.000       0.000      1.0000E-04  1.0000E-04  1.0000E-04  1.0000E-04
       1.0000E-04  1.0000E-04  1.0000E-04  1.0000E-04  1.0000E-04  1.0000E-04  1.0000E-04  1.0000E-04  1.0000E-04  1.0000E-04
       1.0000E-04  1.0000E-04  1.0000E-04  1.0000E-04  1.0000E-04  1.0000E-04  1.0000E-04  1.0000E-04  1.0000E-04  1.0000E-04
       1.0000E-04  1.0000E-04  1.0000E-04  1.0000E-04  1.0000E-04  1.0000E-04  1.0000E-04  1.0000E-04  1.0000E-04  1.0000E-04
       1.0000E-04  1.0000E-04  1.0000E-04  1.0000E-04  1.0000E-04  1.0000E-04
  21   1.0000E-04  1.0000E-04   0.000       0.000       0.000       0.000       0.000       0.000       0.000       0.000    
        0.000       0.000       0.000       0.000       0.000       0.000       0.000       0.000       0.000       0.000    
        0.000       0.000       0.000       0.000       0.000       0.000       0.000       0.000       0.000       0.000    
        0.000       0.000       0.000       0.000       0.000      1.0000E-04  1.0000E-04  1.0000E-04  1.0000E-04  1.0000E-04
       1.0000E-04  1.0000E-04  1.0000E-04  1.0000E-04  1.0000E-04  1.0000E-04  1.0000E-04  1.0000E-04  1.0000E-04  1.0000E-04
       1.0000E-04  1.0000E-04  1.0000E-04  1.0000E-04  1.0000E-04  1.0000E-04  1.0000E-04  1.0000E-04  1.0000E-04  1.0000E-04
       1.0000E-04  1.0000E-04  1.0000E-04  1.0000E-04  1.0000E-04  1.0000E-04  1.0000E-04  1.0000E-04  1.0000E-04  1.0000E-04
       1.0000E-04  1.0000E-04  1.0000E-04  1.0000E-04  1.0000E-04  1.0000E-04
  22   1.0000E-04  1.0000E-04  1.0000E-04  1.0000E-04  1.0000E-04   0.000       0.000       0.000       0.000       0.000    
        0.000       0.000       0.000       0.000       0.000       0.000       0.000       0.000       0.000       0.000    
        0.000       0.000       0.000       0.000       0.000       0.000       0.000       0.000       0.000       0.000    
        0.000       0.000      1.0000E-04  1.0000E-04  1.0000E-04  1.0000E-04  1.0000E-04  1.0000E-04  1.0000E-04  1.0000E-04
       1.0000E-04  1.0000E-04  1.0000E-04  1.0000E-04  1.0000E-04  1.0000E-04  1.0000E-04  1.0000E-04  1.0000E-04  1.0000E-04
       1.0000E-04  1.0000E-04  1.0000E-04  1.0000E-04  1.0000E-04  1.0000E-04  1.0000E-04  1.0000E-04  1.0000E-04  1.0000E-04
       1.0000E-04  1.0000E-04  1.0000E-04  1.0000E-04  1.0000E-04  1.0000E-04  1.0000E-04  1.0000E-04  1.0000E-04  1.0000E-04
       1.0000E-04  1.0000E-04  1.0000E-04  1.0000E-04  1.0000E-04  1.0000E-04
  23   1.0000E-04  1.0000E-04  1.0000E-04  1.0000E-04  1.0000E-04  1.0000E-04  1.0000E-04   0.000       0.000       0.000    
        0.000       0.000       0.000       0.000       0.000       0.000       0.000       0.000       0.000       0.000    
        0.000       0.000       0.000       0.000       0.000       0.000       0.000       0.000       0.000       0.000    
        0.000       0.000      1.0000E-04  1.0000E-04  1.0000E-04  1.0000E-04  1.0000E-04  1.0000E-04  1.0000E-04  1.0000E-04
       1.0000E-04  1.0000E-04  1.0000E-04  1.0000E-04  1.0000E-04  1.0000E-04  1.0000E-04  1.0000E-04  1.0000E-04  1.0000E-04
       1.0000E-04  1.0000E-04  1.0000E-04  1.0000E-04  1.0000E-04  1.0000E-04  1.0000E-04  1.0000E-04  1.0000E-04  1.0000E-04
       1.0000E-04  1.0000E-04  1.0000E-04  1.0000E-04  1.0000E-04  1.0000E-04  1.0000E-04  1.0000E-04  1.0000E-04  1.0000E-04
       1.0000E-04  1.0000E-04  1.0000E-04  1.0000E-04  1.0000E-04  1.0000E-04
  24   1.0000E-04  1.0000E-04  1.0000E-04  1.0000E-04  1.0000E-04  1.0000E-04  1.0000E-04  1.0000E-04  1.0000E-04  1.0000E-04
        0.000       0.000       0.000       0.000       0.000       0.000       0.000       0.000       0.000       0.000    
        0.000       0.000       0.000       0.000       0.000       0.000       0.000       0.000       0.000       0.000    
        0.000       0.000      1.0000E-04  1.0000E-04  1.0000E-04  1.0000E-04  1.0000E-04  1.0000E-04  1.0000E-04  1.0000E-04
       1.0000E-04  1.0000E-04  1.0000E-04  1.0000E-04  1.0000E-04  1.0000E-04  1.0000E-04  1.0000E-04  1.0000E-04  1.0000E-04
       1.0000E-04  1.0000E-04  1.0000E-04  1.0000E-04  1.0000E-04  1.0000E-04  1.0000E-04  1.0000E-04  1.0000E-04  1.0000E-04
       1.0000E-04  1.0000E-04  1.0000E-04  1.0000E-04  1.0000E-04  1.0000E-04  1.0000E-04  1.0000E-04  1.0000E-04  1.0000E-04
       1.0000E-04  1.0000E-04  1.0000E-04  1.0000E-04  1.0000E-04  1.0000E-04
  25   1.0000E-04  1.0000E-04  1.0000E-04  1.0000E-04  1.0000E-04  1.0000E-04  1.0000E-04  1.0000E-04  1.0000E-04  1.0000E-04
       1.0000E-04  1.0000E-04  1.0000E-04   0.000       0.000       0.000       0.000       0.000       0.000       0.000    
        0.000       0.000       0.000       0.000       0.000       0.000       0.000       0.000       0.000      1.0000E-04
       1.0000E-04  1.0000E-04  1.0000E-04  1.0000E-04  1.0000E-04  1.0000E-04  1.0000E-04  1.0000E-04  1.0000E-04  1.0000E-04
       1.0000E-04  1.0000E-04  1.0000E-04  1.0000E-04  1.0000E-04  1.0000E-04  1.0000E-04  1.0000E-04  1.0000E-04  1.0000E-04
       1.0000E-04  1.0000E-04  1.0000E-04  1.0000E-04  1.0000E-04  1.0000E-04  1.0000E-04  1.0000E-04  1.0000E-04  1.0000E-04
       1.0000E-04  1.0000E-04  1.0000E-04  1.0000E-04  1.0000E-04  1.0000E-04  1.0000E-04  1.0000E-04  1.0000E-04  1.0000E-04
       1.0000E-04  1.0000E-04  1.0000E-04  1.0000E-04  1.0000E-04  1.0000E-04
  26   1.0000E-04  1.0000E-04  1.0000E-04  1.0000E-04  1.0000E-04  1.0000E-04  1.0000E-04  1.0000E-04  1.0000E-04  1.0000E-04
       1.0000E-04  1.0000E-04  1.0000E-04  1.0000E-04  1.0000E-04  1.0000E-04  1.0000E-04   0.000       0.000       0.000    
        0.000       0.000       0.000       0.000       0.000       0.000      1.0000E-04  1.0000E-04  1.0000E-04  1.0000E-04
       1.0000E-04  1.0000E-04  1.0000E-04  1.0000E-04  1.0000E-04  1.0000E-04  1.0000E-04  1.0000E-04  1.0000E-04  1.0000E-04
       1.0000E-04  1.0000E-04  1.0000E-04  1.0000E-04  1.0000E-04  1.0000E-04  1.0000E-04  1.0000E-04  1.0000E-04  1.0000E-04
       1.0000E-04  1.0000E-04  1.0000E-04  1.0000E-04  1.0000E-04  1.0000E-04  1.0000E-04  1.0000E-04  1.0000E-04  1.0000E-04
       1.0000E-04  1.0000E-04  1.0000E-04  1.0000E-04  1.0000E-04  1.0000E-04  1.0000E-04  1.0000E-04  1.0000E-04  1.0000E-04
       1.0000E-04  1.0000E-04  1.0000E-04  1.0000E-04  1.0000E-04  1.0000E-04
  27   1.0000E-04  1.0000E-04  1.0000E-04  1.0000E-04  1.0000E-04  1.0000E-04  1.0000E-04  1.0000E-04  1.0000E-04  1.0000E-04
       1.0000E-04  1.0000E-04  1.0000E-04  1.0000E-04  1.0000E-04  1.0000E-04  1.0000E-04  1.0000E-04  1.0000E-04  1.0000E-04
       1.0000E-04  1.0000E-04  1.0000E-04  1.0000E-04  1.0000E-04  1.0000E-04  1.0000E-04  1.0000E-04  1.0000E-04  1.0000E-04
       1.0000E-04  1.0000E-04  1.0000E-04  1.0000E-04  1.0000E-04  1.0000E-04  1.0000E-04  1.0000E-04  1.0000E-04  1.0000E-04
       1.0000E-04  1.0000E-04  1.0000E-04  1.0000E-04  1.0000E-04  1.0000E-04  1.0000E-04  1.0000E-04  1.0000E-04  1.0000E-04
       1.0000E-04  1.0000E-04  1.0000E-04  1.0000E-04  1.0000E-04  1.0000E-04  1.0000E-04  1.0000E-04  1.0000E-04  1.0000E-04
       1.0000E-04  1.0000E-04  1.0000E-04  1.0000E-04  1.0000E-04  1.0000E-04  1.0000E-04  1.0000E-04  1.0000E-04  1.0000E-04
       1.0000E-04  1.0000E-04  1.0000E-04  1.0000E-04  1.0000E-04   0.000    
  28   1.0000E-04  1.0000E-04  1.0000E-04  1.0000E-04  1.0000E-04  1.0000E-04  1.0000E-04  1.0000E-04  1.0000E-04  1.0000E-04
       1.0000E-04  1.0000E-04  1.0000E-04  1.0000E-04  1.0000E-04  1.0000E-04  1.0000E-04  1.0000E-04  1.0000E-04  1.0000E-04
       1.0000E-04  1.0000E-04  1.0000E-04  1.0000E-04  1.0000E-04  1.0000E-04  1.0000E-04  1.0000E-04  1.0000E-04  1.0000E-04
       1.0000E-04  1.0000E-04  1.0000E-04  1.0000E-04  1.0000E-04  1.0000E-04  1.0000E-04  1.0000E-04  1.0000E-04  1.0000E-04
       1.0000E-04  1.0000E-04  1.0000E-04  1.0000E-04  1.0000E-04  1.0000E-04  1.0000E-04  1.0000E-04  1.0000E-04  1.0000E-04
       1.0000E-04  1.0000E-04  1.0000E-04  1.0000E-04  1.0000E-04  1.0000E-04  1.0000E-04  1.0000E-04  1.0000E-04  1.0000E-04
       1.0000E-04  1.0000E-04  1.0000E-04  1.0000E-04  1.0000E-04  1.0000E-04  1.0000E-04  1.0000E-04  1.0000E-04  1.0000E-04
       1.0000E-04  1.0000E-04  1.0000E-04  1.0000E-04  1.0000E-04   0.000    
  29   1.0000E-04  1.0000E-04  1.0000E-04  1.0000E-04  1.0000E-04  1.0000E-04  1.0000E-04  1.0000E-04  1.0000E-04  1.0000E-04
       1.0000E-04  1.0000E-04  1.0000E-04  1.0000E-04  1.0000E-04  1.0000E-04  1.0000E-04  1.0000E-04  1.0000E-04  1.0000E-04
       1.0000E-04  1.0000E-04  1.0000E-04  1.0000E-04  1.0000E-04  1.0000E-04  1.0000E-04  1.0000E-04  1.0000E-04  1.0000E-04
       1.0000E-04  1.0000E-04  1.0000E-04  1.0000E-04  1.0000E-04  1.0000E-04  1.0000E-04  1.0000E-04  1.0000E-04  1.0000E-04
       1.0000E-04  1.0000E-04  1.0000E-04  1.0000E-04  1.0000E-04  1.0000E-04  1.0000E-04  1.0000E-04  1.0000E-04  1.0000E-04
       1.0000E-04  1.0000E-04  1.0000E-04  1.0000E-04  1.0000E-04  1.0000E-04  1.0000E-04  1.0000E-04  1.0000E-04  1.0000E-04
       1.0000E-04  1.0000E-04  1.0000E-04  1.0000E-04  1.0000E-04  1.0000E-04  1.0000E-04  1.0000E-04  1.0000E-04  1.0000E-04
       1.0000E-04  1.0000E-04  1.0000E-04  1.0000E-04  1.0000E-04   0.000    
  30   1.0000E-04  1.0000E-04  1.0000E-04  1.0000E-04  1.0000E-04  1.0000E-04  1.0000E-04  1.0000E-04  1.0000E-04  1.0000E-04
       1.0000E-04  1.0000E-04  1.0000E-04  1.0000E-04  1.0000E-04  1.0000E-04  1.0000E-04  1.0000E-04  1.0000E-04  1.0000E-04
       1.0000E-04  1.0000E-04  1.0000E-04  1.0000E-04  1.0000E-04  1.0000E-04  1.0000E-04  1.0000E-04  1.0000E-04  1.0000E-04
       1.0000E-04  1.0000E-04  1.0000E-04  1.0000E-04  1.0000E-04  1.0000E-04  1.0000E-04  1.0000E-04  1.0000E-04  1.0000E-04
       1.0000E-04  1.0000E-04  1.0000E-04  1.0000E-04  1.0000E-04  1.0000E-04  1.0000E-04  1.0000E-04  1.0000E-04  1.0000E-04
       1.0000E-04  1.0000E-04  1.0000E-04  1.0000E-04  1.0000E-04  1.0000E-04  1.0000E-04  1.0000E-04  1.0000E-04  1.0000E-04
       1.0000E-04  1.0000E-04  1.0000E-04  1.0000E-04  1.0000E-04  1.0000E-04  1.0000E-04  1.0000E-04  1.0000E-04  1.0000E-04
       1.0000E-04  1.0000E-04  1.0000E-04  1.0000E-04  1.0000E-04   0.000    
  31   1.0000E-04  1.0000E-04  1.0000E-04  1.0000E-04  1.0000E-04  1.0000E-04  1.0000E-04  1.0000E-04  1.0000E-04  1.0000E-04
       1.0000E-04  1.0000E-04  1.0000E-04  1.0000E-04  1.0000E-04  1.0000E-04  1.0000E-04  1.0000E-04  1.0000E-04  1.0000E-04
       1.0000E-04  1.0000E-04  1.0000E-04  1.0000E-04  1.0000E-04  1.0000E-04  1.0000E-04  1.0000E-04  1.0000E-04  1.0000E-04
       1.0000E-04  1.0000E-04  1.0000E-04  1.0000E-04  1.0000E-04  1.0000E-04  1.0000E-04  1.0000E-04  1.0000E-04  1.0000E-04
       1.0000E-04  1.0000E-04  1.0000E-04  1.0000E-04  1.0000E-04  1.0000E-04  1.0000E-04  1.0000E-04  1.0000E-04  1.0000E-04
       1.0000E-04  1.0000E-04  1.0000E-04  1.0000E-04  1.0000E-04  1.0000E-04  1.0000E-04  1.0000E-04  1.0000E-04  1.0000E-04
       1.0000E-04  1.0000E-04  1.0000E-04  1.0000E-04  1.0000E-04  1.0000E-04  1.0000E-04  1.0000E-04  1.0000E-04  1.0000E-04
       1.0000E-04  1.0000E-04  1.0000E-04  1.0000E-04   0.000       0.000    
  32    0.000      1.0000E-04  1.0000E-04  1.0000E-04  1.0000E-04  1.0000E-04  1.0000E-04  1.0000E-04  1.0000E-04  1.0000E-04
       1.0000E-04  1.0000E-04  1.0000E-04  1.0000E-04  1.0000E-04  1.0000E-04  1.0000E-04  1.0000E-04  1.0000E-04  1.0000E-04
       1.0000E-04  1.0000E-04  1.0000E-04  1.0000E-04  1.0000E-04  1.0000E-04  1.0000E-04  1.0000E-04  1.0000E-04  1.0000E-04
       1.0000E-04  1.0000E-04  1.0000E-04  1.0000E-04  1.0000E-04  1.0000E-04  1.0000E-04  1.0000E-04  1.0000E-04  1.0000E-04
       1.0000E-04  1.0000E-04  1.0000E-04  1.0000E-04  1.0000E-04  1.0000E-04  1.0000E-04  1.0000E-04  1.0000E-04  1.0000E-04
       1.0000E-04  1.0000E-04  1.0000E-04  1.0000E-04  1.0000E-04  1.0000E-04  1.0000E-04  1.0000E-04  1.0000E-04  1.0000E-04
       1.0000E-04  1.0000E-04  1.0000E-04  1.0000E-04  1.0000E-04  1.0000E-04  1.0000E-04  1.0000E-04  1.0000E-04  1.0000E-04
       1.0000E-04  1.0000E-04  1.0000E-04  1.0000E-04   0.000       0.000    
  33    0.000       0.000       0.000      1.0000E-04  1.0000E-04  1.0000E-04  1.0000E-04  1.0000E-04  1.0000E-04  1.0000E-04
       1.0000E-04  1.0000E-04  1.0000E-04  1.0000E-04  1.0000E-04  1.0000E-04  1.0000E-04  1.0000E-04  1.0000E-04  1.0000E-04
       1.0000E-04  1.0000E-04  1.0000E-04  1.0000E-04  1.0000E-04  1.0000E-04  1.0000E-04  1.0000E-04  1.0000E-04  1.0000E-04
       1.0000E-04  1.0000E-04  1.0000E-04  1.0000E-04  1.0000E-04  1.0000E-04  1.0000E-04  1.0000E-04  1.0000E-04  1.0000E-04
       1.0000E-04  1.0000E-04  1.0000E-04  1.0000E-04  1.0000E-04  1.0000E-04  1.0000E-04  1.0000E-04  1.0000E-04  1.0000E-04
       1.0000E-04  1.0000E-04  1.0000E-04  1.0000E-04  1.0000E-04  1.0000E-04  1.0000E-04  1.0000E-04  1.0000E-04  1.0000E-04
       1.0000E-04  1.0000E-04  1.0000E-04  1.0000E-04  1.0000E-04  1.0000E-04  1.0000E-04  1.0000E-04  1.0000E-04  1.0000E-04
       1.0000E-04  1.0000E-04  1.0000E-04   0.000       0.000       0.000    
  34    0.000       0.000       0.000       0.000       0.000      1.0000E-04  1.0000E-04  1.0000E-04  1.0000E-04  1.0000E-04
       1.0000E-04  1.0000E-04  1.0000E-04  1.0000E-04  1.0000E-04  1.0000E-04  1.0000E-04  1.0000E-04  1.0000E-04  1.0000E-04
       1.0000E-04  1.0000E-04  1.0000E-04  1.0000E-04  1.0000E-04  1.0000E-04  1.0000E-04  1.0000E-04  1.0000E-04  1.0000E-04
       1.0000E-04  1.0000E-04  1.0000E-04  1.0000E-04  1.0000E-04  1.0000E-04  1.0000E-04  1.0000E-04  1.0000E-04  1.0000E-04
       1.0000E-04  1.0000E-04  1.0000E-04  1.0000E-04  1.0000E-04  1.0000E-04  1.0000E-04  1.0000E-04  1.0000E-04  1.0000E-04
       1.0000E-04  1.0000E-04  1.0000E-04  1.0000E-04  1.0000E-04  1.0000E-04  1.0000E-04  1.0000E-04  1.0000E-04  1.0000E-04
       1.0000E-04  1.0000E-04  1.0000E-04  1.0000E-04  1.0000E-04  1.0000E-04  1.0000E-04  1.0000E-04  1.0000E-04  1.0000E-04
       1.0000E-04  1.0000E-04  1.0000E-04   0.000       0.000       0.000    
  35    0.000       0.000       0.000       0.000       0.000       0.000      1.0000E-04  1.0000E-04  1.0000E-04  1.0000E-04
       1.0000E-04  1.0000E-04  1.0000E-04  1.0000E-04  1.0000E-04  1.0000E-04  1.0000E-04  1.0000E-04  1.0000E-04  1.0000E-04
       1.0000E-04  1.0000E-04  1.0000E-04  1.0000E-04  1.0000E-04  1.0000E-04  1.0000E-04  1.0000E-04  1.0000E-04  1.0000E-04
       1.0000E-04  1.0000E-04  1.0000E-04  1.0000E-04  1.0000E-04  1.0000E-04  1.0000E-04  1.0000E-04  1.0000E-04  1.0000E-04
       1.0000E-04  1.0000E-04  1.0000E-04  1.0000E-04  1.0000E-04  1.0000E-04  1.0000E-04  1.0000E-04  1.0000E-04  1.0000E-04
       1.0000E-04  1.0000E-04  1.0000E-04  1.0000E-04  1.0000E-04  1.0000E-04  1.0000E-04  1.0000E-04  1.0000E-04  1.0000E-04
       1.0000E-04  1.0000E-04  1.0000E-04  1.0000E-04  1.0000E-04  1.0000E-04  1.0000E-04  1.0000E-04  1.0000E-04  1.0000E-04
       1.0000E-04  1.0000E-04   0.000       0.000       0.000       0.000    
  36    0.000       0.000       0.000       0.000       0.000       0.000       0.000       0.000      1.0000E-04  1.0000E-04
       1.0000E-04  1.0000E-04  1.0000E-04  1.0000E-04  1.0000E-04  1.0000E-04  1.0000E-04  1.0000E-04  1.0000E-04  1.0000E-04
       1.0000E-04  1.0000E-04  1.0000E-04  1.0000E-04  1.0000E-04  1.0000E-04  1.0000E-04  1.0000E-04  1.0000E-04  1.0000E-04
       1.0000E-04  1.0000E-04  1.0000E-04  1.0000E-04  1.0000E-04  1.0000E-04  1.0000E-04  1.0000E-04  1.0000E-04  1.0000E-04
       1.0000E-04  1.0000E-04  1.0000E-04  1.0000E-04  1.0000E-04  1.0000E-04  1.0000E-04  1.0000E-04  1.0000E-04  1.0000E-04
       1.0000E-04  1.0000E-04  1.0000E-04  1.0000E-04  1.0000E-04  1.0000E-04  1.0000E-04  1.0000E-04  1.0000E-04  1.0000E-04
       1.0000E-04  1.0000E-04  1.0000E-04  1.0000E-04  1.0000E-04  1.0000E-04  1.0000E-04  1.0000E-04  1.0000E-04  1.0000E-04
       1.0000E-04  1.0000E-04   0.000       0.000       0.000       0.000    
  37   1.0000E-04  1.0000E-04  1.0000E-04   0.000       0.000       0.000       0.000       0.000       0.000       0.000    
       1.0000E-04  1.0000E-04  1.0000E-04  1.0000E-04  1.0000E-04  1.0000E-04  1.0000E-04  1.0000E-04  1.0000E-04  1.0000E-04
       1.0000E-04  1.0000E-04  1.0000E-04  1.0000E-04  1.0000E-04  1.0000E-04  1.0000E-04  1.0000E-04  1.0000E-04  1.0000E-04
       1.0000E-04  1.0000E-04  1.0000E-04  1.0000E-04  1.0000E-04  1.0000E-04  1.0000E-04  1.0000E-04  1.0000E-04  1.0000E-04
       1.0000E-04  1.0000E-04  1.0000E-04  1.0000E-04  1.0000E-04  1.0000E-04  1.0000E-04  1.0000E-04  1.0000E-04  1.0000E-04
       1.0000E-04  1.0000E-04  1.0000E-04  1.0000E-04  1.0000E-04  1.0000E-04  1.0000E-04  1.0000E-04  1.0000E-04  1.0000E-04
       1.0000E-04  1.0000E-04  1.0000E-04  1.0000E-04  1.0000E-04  1.0000E-04  1.0000E-04  1.0000E-04  1.0000E-04  1.0000E-04
       1.0000E-04  1.0000E-04   0.000       0.000       0.000       0.000    
  38   1.0000E-04  1.0000E-04  1.0000E-04  1.0000E-04  1.0000E-04  1.0000E-04  1.0000E-04   0.000       0.000       0.000    
        0.000      1.0000E-04  1.0000E-04  1.0000E-04  1.0000E-04  1.0000E-04  1.0000E-04  1.0000E-04  1.0000E-04  1.0000E-04
       1.0000E-04  1.0000E-04  1.0000E-04  1.0000E-04  1.0000E-04  1.0000E-04  1.0000E-04  1.0000E-04  1.0000E-04  1.0000E-04
       1.0000E-04  1.0000E-04  1.0000E-04  1.0000E-04  1.0000E-04  1.0000E-04  1.0000E-04  1.0000E-04  1.0000E-04  1.0000E-04
       1.0000E-04  1.0000E-04  1.0000E-04  1.0000E-04  1.0000E-04  1.0000E-04  1.0000E-04  1.0000E-04  1.0000E-04  1.0000E-04
       1.0000E-04  1.0000E-04  1.0000E-04  1.0000E-04  1.0000E-04  1.0000E-04  1.0000E-04  1.0000E-04  1.0000E-04  1.0000E-04
       1.0000E-04  1.0000E-04  1.0000E-04  1.0000E-04  1.0000E-04  1.0000E-04  1.0000E-04  1.0000E-04  1.0000E-04   0.000    
       1.0000E-04  1.0000E-04   0.000       0.000       0.000       0.000    
  39   1.0000E-04  1.0000E-04  1.0000E-04  1.0000E-04  1.0000E-04  1.0000E-04  1.0000E-04  1.0000E-04  1.0000E-04  1.0000E-04
       1.0000E-04   0.000       0.000      1.0000E-04  1.0000E-04  1.0000E-04  1.0000E-04  1.0000E-04  1.0000E-04  1.0000E-04
       1.0000E-04  1.0000E-04  1.0000E-04  1.0000E-04  1.0000E-04  1.0000E-04  1.0000E-04  1.0000E-04  1.0000E-04  1.0000E-04
       1.0000E-04  1.0000E-04  1.0000E-04  1.0000E-04  1.0000E-04  1.0000E-04  1.0000E-04  1.0000E-04  1.0000E-04  1.0000E-04
       1.0000E-04  1.0000E-04  1.0000E-04  1.0000E-04  1.0000E-04  1.0000E-04  1.0000E-04  1.0000E-04  1.0000E-04  1.0000E-04
       1.0000E-04  1.0000E-04  1.0000E-04  1.0000E-04  1.0000E-04  1.0000E-04  1.0000E-04  1.0000E-04  1.0000E-04  1.0000E-04
       1.0000E-04  1.0000E-04  1.0000E-04  1.0000E-04  1.0000E-04  1.0000E-04  1.0000E-04  1.0000E-04  1.0000E-04  1.0000E-04
       1.0000E-04   0.000       0.000       0.000       0.000       0.000    
  40   1.0000E-04  1.0000E-04  1.0000E-04  1.0000E-04  1.0000E-04  1.0000E-04  1.0000E-04  1.0000E-04  1.0000E-04  1.0000E-04
       1.0000E-04  1.0000E-04  1.0000E-04  1.0000E-04  1.0000E-04  1.0000E-04  1.0000E-04  1.0000E-04  1.0000E-04  1.0000E-04
       1.0000E-04  1.0000E-04  1.0000E-04  1.0000E-04  1.0000E-04  1.0000E-04  1.0000E-04  1.0000E-04  1.0000E-04  1.0000E-04
       1.0000E-04  1.0000E-04  1.0000E-04  1.0000E-04  1.0000E-04  1.0000E-04  1.0000E-04  1.0000E-04  1.0000E-04  1.0000E-04
       1.0000E-04  1.0000E-04  1.0000E-04  1.0000E-04  1.0000E-04  1.0000E-04  1.0000E-04  1.0000E-04  1.0000E-04  1.0000E-04
       1.0000E-04  1.0000E-04  1.0000E-04  1.0000E-04  1.0000E-04  1.0000E-04  1.0000E-04  1.0000E-04  1.0000E-04  1.0000E-04
       1.0000E-04  1.0000E-04  1.0000E-04  1.0000E-04  1.0000E-04  1.0000E-04  1.0000E-04  1.0000E-04  1.0000E-04  1.0000E-04
       1.0000E-04   0.000       0.000       0.000       0.000       0.000    
  41   1.0000E-04  1.0000E-04  1.0000E-04  1.0000E-04  1.0000E-04  1.0000E-04  1.0000E-04  1.0000E-04  1.0000E-04  1.0000E-04
       1.0000E-04  1.0000E-04  1.0000E-04  1.0000E-04  1.0000E-04  1.0000E-04  1.0000E-04  1.0000E-04  1.0000E-04  1.0000E-04
       1.0000E-04  1.0000E-04  1.0000E-04  1.0000E-04  1.0000E-04  1.0000E-04  1.0000E-04  1.0000E-04  1.0000E-04  1.0000E-04
       1.0000E-04  1.0000E-04  1.0000E-04  1.0000E-04  1.0000E-04  1.0000E-04  1.0000E-04  1.0000E-04  1.0000E-04  1.0000E-04
       1.0000E-04  1.0000E-04  1.0000E-04  1.0000E-04  1.0000E-04  1.0000E-04  1.0000E-04  1.0000E-04  1.0000E-04  1.0000E-04
       1.0000E-04  1.0000E-04  1.0000E-04  1.0000E-04  1.0000E-04  1.0000E-04  1.0000E-04  1.0000E-04  1.0000E-04  1.0000E-04
       1.0000E-04  1.0000E-04  1.0000E-04  1.0000E-04  1.0000E-04  1.0000E-04  1.0000E-04  1.0000E-04  1.0000E-04  1.0000E-04
       1.0000E-04  1.0000E-04   0.000       0.000       0.000       0.000    
  42   1.0000E-04  1.0000E-04  1.0000E-04  1.0000E-04  1.0000E-04  1.0000E-04  1.0000E-04  1.0000E-04  1.0000E-04  1.0000E-04
       1.0000E-04  1.0000E-04  1.0000E-04  1.0000E-04  1.0000E-04  1.0000E-04  1.0000E-04  1.0000E-04  1.0000E-04  1.0000E-04
       1.0000E-04  1.0000E-04  1.0000E-04  1.0000E-04  1.0000E-04  1.0000E-04  1.0000E-04  1.0000E-04  1.0000E-04  1.0000E-04
       1.0000E-04  1.0000E-04  1.0000E-04  1.0000E-04  1.0000E-04  1.0000E-04  1.0000E-04  1.0000E-04  1.0000E-04  1.0000E-04
       1.0000E-04  1.0000E-04  1.0000E-04  1.0000E-04  1.0000E-04  1.0000E-04  1.0000E-04  1.0000E-04  1.0000E-04  1.0000E-04
       1.0000E-04  1.0000E-04  1.0000E-04  1.0000E-04  1.0000E-04  1.0000E-04  1.0000E-04  1.0000E-04  1.0000E-04  1.0000E-04
       1.0000E-04  1.0000E-04  1.0000E-04  1.0000E-04  1.0000E-04  1.0000E-04  1.0000E-04  1.0000E-04  1.0000E-04  1.0000E-04
       1.0000E-04  1.0000E-04   0.000       0.000       0.000       0.000    
  43   1.0000E-04  1.0000E-04  1.0000E-04  1.0000E-04  1.0000E-04  1.0000E-04  1.0000E-04  1.0000E-04  1.0000E-04  1.0000E-04
       1.0000E-04  1.0000E-04  1.0000E-04  1.0000E-04  1.0000E-04  1.0000E-04  1.0000E-04  1.0000E-04  1.0000E-04  1.0000E-04
       1.0000E-04  1.0000E-04  1.0000E-04  1.0000E-04  1.0000E-04  1.0000E-04  1.0000E-04  1.0000E-04  1.0000E-04  1.0000E-04
       1.0000E-04  1.0000E-04  1.0000E-04  1.0000E-04  1.0000E-04  1.0000E-04  1.0000E-04  1.0000E-04  1.0000E-04  1.0000E-04
       1.0000E-04  1.0000E-04  1.0000E-04  1.0000E-04  1.0000E-04  1.0000E-04  1.0000E-04  1.0000E-04  1.0000E-04  1.0000E-04
       1.0000E-04  1.0000E-04  1.0000E-04  1.0000E-04  1.0000E-04  1.0000E-04  1.0000E-04  1.0000E-04  1.0000E-04  1.0000E-04
       1.0000E-04  1.0000E-04  1.0000E-04  1.0000E-04  1.0000E-04  1.0000E-04  1.0000E-04  1.0000E-04  1.0000E-04  1.0000E-04
       1.0000E-04  1.0000E-04  1.0000E-04   0.000       0.000       0.000    
  44   1.0000E-04  1.0000E-04  1.0000E-04  1.0000E-04  1.0000E-04  1.0000E-04  1.0000E-04  1.0000E-04  1.0000E-04  1.0000E-04
       1.0000E-04  1.0000E-04  1.0000E-04  1.0000E-04  1.0000E-04  1.0000E-04  1.0000E-04  1.0000E-04  1.0000E-04  1.0000E-04
       1.0000E-04  1.0000E-04  1.0000E-04  1.0000E-04  1.0000E-04  1.0000E-04  1.0000E-04  1.0000E-04  1.0000E-04  1.0000E-04
       1.0000E-04  1.0000E-04  1.0000E-04  1.0000E-04  1.0000E-04  1.0000E-04  1.0000E-04  1.0000E-04  1.0000E-04  1.0000E-04
       1.0000E-04  1.0000E-04  1.0000E-04  1.0000E-04  1.0000E-04  1.0000E-04  1.0000E-04  1.0000E-04  1.0000E-04  1.0000E-04
       1.0000E-04  1.0000E-04  1.0000E-04  1.0000E-04  1.0000E-04  1.0000E-04  1.0000E-04  1.0000E-04  1.0000E-04  1.0000E-04
       1.0000E-04  1.0000E-04  1.0000E-04  1.0000E-04  1.0000E-04  1.0000E-04  1.0000E-04  1.0000E-04  1.0000E-04  1.0000E-04
       1.0000E-04  1.0000E-04  1.0000E-04  1.0000E-04   0.000       0.000    
  45   1.0000E-04  1.0000E-04  1.0000E-04  1.0000E-04  1.0000E-04  1.0000E-04  1.0000E-04  1.0000E-04  1.0000E-04  1.0000E-04
       1.0000E-04  1.0000E-04  1.0000E-04  1.0000E-04  1.0000E-04  1.0000E-04  1.0000E-04  1.0000E-04  1.0000E-04  1.0000E-04
       1.0000E-04  1.0000E-04  1.0000E-04  1.0000E-04  1.0000E-04  1.0000E-04  1.0000E-04  1.0000E-04  1.0000E-04  1.0000E-04
       1.0000E-04  1.0000E-04  1.0000E-04  1.0000E-04  1.0000E-04  1.0000E-04  1.0000E-04  1.0000E-04  1.0000E-04  1.0000E-04
       1.0000E-04  1.0000E-04  1.0000E-04  1.0000E-04  1.0000E-04  1.0000E-04  1.0000E-04  1.0000E-04  1.0000E-04  1.0000E-04
       1.0000E-04  1.0000E-04  1.0000E-04  1.0000E-04  1.0000E-04  1.0000E-04  1.0000E-04  1.0000E-04  1.0000E-04  1.0000E-04
       1.0000E-04  1.0000E-04  1.0000E-04  1.0000E-04  1.0000E-04  1.0000E-04  1.0000E-04  1.0000E-04  1.0000E-04  1.0000E-04
       1.0000E-04  1.0000E-04  1.0000E-04  1.0000E-04  1.0000E-04   0.000    
  46   1.0000E-04  1.0000E-04  1.0000E-04  1.0000E-04  1.0000E-04  1.0000E-04  1.0000E-04  1.0000E-04  1.0000E-04  1.0000E-04
       1.0000E-04  1.0000E-04  1.0000E-04  1.0000E-04  1.0000E-04  1.0000E-04  1.0000E-04  1.0000E-04  1.0000E-04  1.0000E-04
       1.0000E-04  1.0000E-04  1.0000E-04  1.0000E-04  1.0000E-04  1.0000E-04  1.0000E-04  1.0000E-04  1.0000E-04  1.0000E-04
       1.0000E-04  1.0000E-04  1.0000E-04  1.0000E-04  1.0000E-04  1.0000E-04  1.0000E-04  1.0000E-04  1.0000E-04  1.0000E-04
       1.0000E-04  1.0000E-04  1.0000E-04  1.0000E-04  1.0000E-04  1.0000E-04  1.0000E-04  1.0000E-04  1.0000E-04  1.0000E-04
       1.0000E-04  1.0000E-04  1.0000E-04  1.0000E-04  1.0000E-04  1.0000E-04  1.0000E-04  1.0000E-04  1.0000E-04  1.0000E-04
       1.0000E-04  1.0000E-04  1.0000E-04  1.0000E-04  1.0000E-04  1.0000E-04  1.0000E-04  1.0000E-04  1.0000E-04  1.0000E-04
       1.0000E-04  1.0000E-04  1.0000E-04  1.0000E-04  1.0000E-04  1.0000E-04
  47   1.0000E-04  1.0000E-04  1.0000E-04  1.0000E-04  1.0000E-04  1.0000E-04  1.0000E-04  1.0000E-04  1.0000E-04  1.0000E-04
       1.0000E-04  1.0000E-04  1.0000E-04  1.0000E-04  1.0000E-04  1.0000E-04  1.0000E-04  1.0000E-04  1.0000E-04  1.0000E-04
       1.0000E-04  1.0000E-04  1.0000E-04  1.0000E-04  1.0000E-04  1.0000E-04  1.0000E-04  1.0000E-04  1.0000E-04  1.0000E-04
       1.0000E-04  1.0000E-04  1.0000E-04  1.0000E-04  1.0000E-04  1.0000E-04  1.0000E-04  1.0000E-04  1.0000E-04  1.0000E-04
       1.0000E-04  1.0000E-04  1.0000E-04  1.0000E-04  1.0000E-04  1.0000E-04  1.0000E-04  1.0000E-04  1.0000E-04  1.0000E-04
       1.0000E-04  1.0000E-04  1.0000E-04  1.0000E-04  1.0000E-04  1.0000E-04  1.0000E-04  1.0000E-04  1.0000E-04  1.0000E-04
       1.0000E-04  1.0000E-04  1.0000E-04  1.0000E-04  1.0000E-04  1.0000E-04  1.0000E-04  1.0000E-04  1.0000E-04  1.0000E-04
       1.0000E-04  1.0000E-04  1.0000E-04  1.0000E-04  1.0000E-04  1.0000E-04
  48   1.0000E-04  1.0000E-04  1.0000E-04  1.0000E-04  1.0000E-04  1.0000E-04  1.0000E-04  1.0000E-04  1.0000E-04  1.0000E-04
       1.0000E-04  1.0000E-04  1.0000E-04  1.0000E-04  1.0000E-04  1.0000E-04  1.0000E-04  1.0000E-04  1.0000E-04  1.0000E-04
       1.0000E-04  1.0000E-04  1.0000E-04  1.0000E-04  1.0000E-04  1.0000E-04  1.0000E-04  1.0000E-04  1.0000E-04  1.0000E-04
       1.0000E-04  1.0000E-04  1.0000E-04  1.0000E-04  1.0000E-04  1.0000E-04  1.0000E-04  1.0000E-04  1.0000E-04  1.0000E-04
       1.0000E-04  1.0000E-04  1.0000E-04  1.0000E-04  1.0000E-04  1.0000E-04  1.0000E-04  1.0000E-04  1.0000E-04  1.0000E-04
       1.0000E-04  1.0000E-04  1.0000E-04  1.0000E-04  1.0000E-04  1.0000E-04  1.0000E-04  1.0000E-04  1.0000E-04  1.0000E-04
       1.0000E-04  1.0000E-04  1.0000E-04  1.0000E-04  1.0000E-04  1.0000E-04  1.0000E-04  1.0000E-04  1.0000E-04  1.0000E-04
       1.0000E-04  1.0000E-04  1.0000E-04  1.0000E-04  1.0000E-04  1.0000E-04
  49   1.0000E-04  1.0000E-04  1.0000E-04  1.0000E-04  1.0000E-04  1.0000E-04  1.0000E-04  1.0000E-04  1.0000E-04  1.0000E-04
       1.0000E-04  1.0000E-04  1.0000E-04  1.0000E-04  1.0000E-04  1.0000E-04  1.0000E-04  1.0000E-04  1.0000E-04  1.0000E-04
       1.0000E-04  1.0000E-04  1.0000E-04  1.0000E-04  1.0000E-04  1.0000E-04  1.0000E-04  1.0000E-04  1.0000E-04  1.0000E-04
       1.0000E-04  1.0000E-04  1.0000E-04  1.0000E-04  1.0000E-04  1.0000E-04  1.0000E-04  1.0000E-04  1.0000E-04  1.0000E-04
       1.0000E-04  1.0000E-04  1.0000E-04  1.0000E-04  1.0000E-04  1.0000E-04  1.0000E-04  1.0000E-04  1.0000E-04  1.0000E-04
       1.0000E-04  1.0000E-04  1.0000E-04  1.0000E-04  1.0000E-04  1.0000E-04  1.0000E-04  1.0000E-04  1.0000E-04  1.0000E-04
       1.0000E-04  1.0000E-04  1.0000E-04  1.0000E-04  1.0000E-04  1.0000E-04  1.0000E-04  1.0000E-04  1.0000E-04  1.0000E-04
       1.0000E-04  1.0000E-04  1.0000E-04  1.0000E-04  1.0000E-04  1.0000E-04
  50   1.0000E-04  1.0000E-04  1.0000E-04  1.0000E-04  1.0000E-04  1.0000E-04  1.0000E-04  1.0000E-04  1.0000E-04  1.0000E-04
       1.0000E-04  1.0000E-04  1.0000E-04  1.0000E-04  1.0000E-04  1.0000E-04  1.0000E-04  1.0000E-04  1.0000E-04  1.0000E-04
       1.0000E-04  1.0000E-04  1.0000E-04  1.0000E-04  1.0000E-04  1.0000E-04  1.0000E-04  1.0000E-04  1.0000E-04  1.0000E-04
       1.0000E-04  1.0000E-04  1.0000E-04  1.0000E-04  1.0000E-04  1.0000E-04  1.0000E-04  1.0000E-04  1.0000E-04  1.0000E-04
       1.0000E-04  1.0000E-04  1.0000E-04  1.0000E-04  1.0000E-04  1.0000E-04  1.0000E-04  1.0000E-04  1.0000E-04  1.0000E-04
       1.0000E-04  1.0000E-04  1.0000E-04  1.0000E-04  1.0000E-04  1.0000E-04  1.0000E-04  1.0000E-04  1.0000E-04  1.0000E-04
       1.0000E-04  1.0000E-04  1.0000E-04  1.0000E-04  1.0000E-04  1.0000E-04  1.0000E-04  1.0000E-04  1.0000E-04  1.0000E-04
       1.0000E-04  1.0000E-04  1.0000E-04  1.0000E-04  1.0000E-04  1.0000E-04
  51   1.0000E-04  1.0000E-04  1.0000E-04  1.0000E-04  1.0000E-04  1.0000E-04  1.0000E-04  1.0000E-04  1.0000E-04  1.0000E-04
       1.0000E-04  1.0000E-04  1.0000E-04  1.0000E-04  1.0000E-04  1.0000E-04  1.0000E-04  1.0000E-04  1.0000E-04  1.0000E-04
       1.0000E-04  1.0000E-04  1.0000E-04  1.0000E-04  1.0000E-04  1.0000E-04  1.0000E-04  1.0000E-04  1.0000E-04  1.0000E-04
       1.0000E-04  1.0000E-04  1.0000E-04  1.0000E-04  1.0000E-04  1.0000E-04  1.0000E-04  1.0000E-04  1.0000E-04  1.0000E-04
       1.0000E-04  1.0000E-04  1.0000E-04  1.0000E-04  1.0000E-04  1.0000E-04  1.0000E-04  1.0000E-04  1.0000E-04  1.0000E-04
       1.0000E-04  1.0000E-04  1.0000E-04  1.0000E-04  1.0000E-04  1.0000E-04  1.0000E-04  1.0000E-04  1.0000E-04  1.0000E-04
       1.0000E-04  1.0000E-04  1.0000E-04  1.0000E-04  1.0000E-04  1.0000E-04  1.0000E-04  1.0000E-04  1.0000E-04  1.0000E-04
       1.0000E-04  1.0000E-04  1.0000E-04  1.0000E-04  1.0000E-04  1.0000E-04
  52   1.0000E-04  1.0000E-04  1.0000E-04  1.0000E-04  1.0000E-04  1.0000E-04  1.0000E-04  1.0000E-04  1.0000E-04  1.0000E-04
       1.0000E-04  1.0000E-04  1.0000E-04  1.0000E-04  1.0000E-04  1.0000E-04  1.0000E-04  1.0000E-04  1.0000E-04  1.0000E-04
       1.0000E-04  1.0000E-04  1.0000E-04  1.0000E-04  1.0000E-04  1.0000E-04  1.0000E-04  1.0000E-04  1.0000E-04  1.0000E-04
       1.0000E-04  1.0000E-04  1.0000E-04  1.0000E-04  1.0000E-04  1.0000E-04  1.0000E-04  1.0000E-04  1.0000E-04  1.0000E-04
       1.0000E-04  1.0000E-04  1.0000E-04  1.0000E-04  1.0000E-04  1.0000E-04  1.0000E-04  1.0000E-04  1.0000E-04  1.0000E-04
       1.0000E-04  1.0000E-04  1.0000E-04  1.0000E-04  1.0000E-04  1.0000E-04  1.0000E-04  1.0000E-04  1.0000E-04  1.0000E-04
       1.0000E-04  1.0000E-04  1.0000E-04  1.0000E-04  1.0000E-04  1.0000E-04  1.0000E-04  1.0000E-04  1.0000E-04  1.0000E-04
       1.0000E-04  1.0000E-04  1.0000E-04  1.0000E-04  1.0000E-04  1.0000E-04
  53   1.0000E-04  1.0000E-04  1.0000E-04  1.0000E-04  1.0000E-04  1.0000E-04  1.0000E-04  1.0000E-04  1.0000E-04  1.0000E-04
       1.0000E-04  1.0000E-04  1.0000E-04  1.0000E-04  1.0000E-04  1.0000E-04  1.0000E-04  1.0000E-04  1.0000E-04  1.0000E-04
       1.0000E-04  1.0000E-04  1.0000E-04  1.0000E-04  1.0000E-04  1.0000E-04  1.0000E-04  1.0000E-04  1.0000E-04  1.0000E-04
       1.0000E-04  1.0000E-04  1.0000E-04  1.0000E-04  1.0000E-04  1.0000E-04  1.0000E-04  1.0000E-04  1.0000E-04  1.0000E-04
       1.0000E-04  1.0000E-04  1.0000E-04  1.0000E-04  1.0000E-04  1.0000E-04  1.0000E-04  1.0000E-04  1.0000E-04  1.0000E-04
       1.0000E-04  1.0000E-04  1.0000E-04  1.0000E-04  1.0000E-04  1.0000E-04  1.0000E-04  1.0000E-04  1.0000E-04  1.0000E-04
       1.0000E-04  1.0000E-04  1.0000E-04  1.0000E-04  1.0000E-04  1.0000E-04  1.0000E-04  1.0000E-04  1.0000E-04  1.0000E-04
       1.0000E-04  1.0000E-04  1.0000E-04  1.0000E-04  1.0000E-04  1.0000E-04
  54   1.0000E-04  1.0000E-04  1.0000E-04  1.0000E-04  1.0000E-04  1.0000E-04  1.0000E-04  1.0000E-04  1.0000E-04  1.0000E-04
       1.0000E-04  1.0000E-04  1.0000E-04  1.0000E-04  1.0000E-04  1.0000E-04  1.0000E-04  1.0000E-04  1.0000E-04  1.0000E-04
       1.0000E-04  1.0000E-04  1.0000E-04  1.0000E-04  1.0000E-04  1.0000E-04  1.0000E-04  1.0000E-04  1.0000E-04  1.0000E-04
       1.0000E-04  1.0000E-04  1.0000E-04  1.0000E-04  1.0000E-04  1.0000E-04  1.0000E-04  1.0000E-04  1.0000E-04  1.0000E-04
       1.0000E-04  1.0000E-04  1.0000E-04  1.0000E-04  1.0000E-04  1.0000E-04  1.0000E-04  1.0000E-04  1.0000E-04  1.0000E-04
       1.0000E-04  1.0000E-04  1.0000E-04  1.0000E-04  1.0000E-04  1.0000E-04  1.0000E-04  1.0000E-04  1.0000E-04  1.0000E-04
       1.0000E-04  1.0000E-04  1.0000E-04  1.0000E-04  1.0000E-04  1.0000E-04  1.0000E-04  1.0000E-04  1.0000E-04  1.0000E-04
       1.0000E-04  1.0000E-04  1.0000E-04  1.0000E-04  1.0000E-04  1.0000E-04
  55   1.0000E-04  1.0000E-04  1.0000E-04  1.0000E-04  1.0000E-04  1.0000E-04  1.0000E-04  1.0000E-04  1.0000E-04  1.0000E-04
       1.0000E-04  1.0000E-04  1.0000E-04  1.0000E-04  1.0000E-04  1.0000E-04  1.0000E-04  1.0000E-04  1.0000E-04  1.0000E-04
       1.0000E-04  1.0000E-04  1.0000E-04  1.0000E-04  1.0000E-04  1.0000E-04  1.0000E-04  1.0000E-04  1.0000E-04  1.0000E-04
       1.0000E-04  1.0000E-04  1.0000E-04  1.0000E-04  1.0000E-04  1.0000E-04  1.0000E-04  1.0000E-04  1.0000E-04  1.0000E-04
       1.0000E-04  1.0000E-04  1.0000E-04  1.0000E-04  1.0000E-04  1.0000E-04  1.0000E-04  1.0000E-04  1.0000E-04  1.0000E-04
       1.0000E-04  1.0000E-04  1.0000E-04  1.0000E-04  1.0000E-04  1.0000E-04  1.0000E-04  1.0000E-04  1.0000E-04  1.0000E-04
       1.0000E-04  1.0000E-04  1.0000E-04  1.0000E-04  1.0000E-04  1.0000E-04  1.0000E-04  1.0000E-04  1.0000E-04  1.0000E-04
       1.0000E-04  1.0000E-04  1.0000E-04  1.0000E-04  1.0000E-04  1.0000E-04
  56   1.0000E-04  1.0000E-04  1.0000E-04  1.0000E-04  1.0000E-04  1.0000E-04  1.0000E-04  1.0000E-04  1.0000E-04  1.0000E-04
       1.0000E-04  1.0000E-04  1.0000E-04  1.0000E-04  1.0000E-04  1.0000E-04  1.0000E-04  1.0000E-04  1.0000E-04  1.0000E-04
       1.0000E-04  1.0000E-04  1.0000E-04  1.0000E-04  1.0000E-04  1.0000E-04  1.0000E-04  1.0000E-04  1.0000E-04  1.0000E-04
       1.0000E-04  1.0000E-04  1.0000E-04  1.0000E-04  1.0000E-04  1.0000E-04  1.0000E-04  1.0000E-04  1.0000E-04  1.0000E-04
       1.0000E-04  1.0000E-04  1.0000E-04  1.0000E-04  1.0000E-04  1.0000E-04  1.0000E-04  1.0000E-04  1.0000E-04  1.0000E-04
       1.0000E-04  1.0000E-04  1.0000E-04  1.0000E-04  1.0000E-04  1.0000E-04  1.0000E-04  1.0000E-04  1.0000E-04  1.0000E-04
       1.0000E-04  1.0000E-04  1.0000E-04  1.0000E-04  1.0000E-04  1.0000E-04  1.0000E-04  1.0000E-04  1.0000E-04  1.0000E-04
       1.0000E-04  1.0000E-04  1.0000E-04  1.0000E-04  1.0000E-04  1.0000E-04
  57   1.0000E-04  1.0000E-04  1.0000E-04  1.0000E-04  1.0000E-04  1.0000E-04  1.0000E-04  1.0000E-04  1.0000E-04  1.0000E-04
       1.0000E-04  1.0000E-04  1.0000E-04  1.0000E-04  1.0000E-04  1.0000E-04  1.0000E-04  1.0000E-04  1.0000E-04  1.0000E-04
       1.0000E-04  1.0000E-04  1.0000E-04  1.0000E-04  1.0000E-04  1.0000E-04  1.0000E-04  1.0000E-04  1.0000E-04  1.0000E-04
       1.0000E-04  1.0000E-04  1.0000E-04  1.0000E-04  1.0000E-04  1.0000E-04  1.0000E-04  1.0000E-04  1.0000E-04  1.0000E-04
       1.0000E-04  1.0000E-04  1.0000E-04  1.0000E-04  1.0000E-04  1.0000E-04  1.0000E-04  1.0000E-04  1.0000E-04  1.0000E-04
       1.0000E-04  1.0000E-04  1.0000E-04  1.0000E-04  1.0000E-04  1.0000E-04  1.0000E-04  1.0000E-04  1.0000E-04  1.0000E-04
       1.0000E-04  1.0000E-04  1.0000E-04  1.0000E-04  1.0000E-04  1.0000E-04  1.0000E-04  1.0000E-04  1.0000E-04  1.0000E-04
       1.0000E-04  1.0000E-04  1.0000E-04  1.0000E-04  1.0000E-04  1.0000E-04
  58   1.0000E-04  1.0000E-04  1.0000E-04  1.0000E-04  1.0000E-04  1.0000E-04  1.0000E-04  1.0000E-04  1.0000E-04  1.0000E-04
       1.0000E-04  1.0000E-04  1.0000E-04  1.0000E-04  1.0000E-04  1.0000E-04  1.0000E-04  1.0000E-04  1.0000E-04  1.0000E-04
       1.0000E-04  1.0000E-04   0.000      1.0000E-04  1.0000E-04  1.0000E-04  1.0000E-04  1.0000E-04  1.0000E-04  1.0000E-04
       1.0000E-04  1.0000E-04  1.0000E-04  1.0000E-04  1.0000E-04  1.0000E-04  1.0000E-04  1.0000E-04  1.0000E-04  1.0000E-04
       1.0000E-04  1.0000E-04  1.0000E-04  1.0000E-04  1.0000E-04  1.0000E-04  1.0000E-04  1.0000E-04  1.0000E-04  1.0000E-04
       1.0000E-04  1.0000E-04  1.0000E-04  1.0000E-04  1.0000E-04  1.0000E-04  1.0000E-04  1.0000E-04  1.0000E-04  1.0000E-04
       1.0000E-04  1.0000E-04  1.0000E-04  1.0000E-04  1.0000E-04  1.0000E-04  1.0000E-04  1.0000E-04  1.0000E-04  1.0000E-04
       1.0000E-04  1.0000E-04  1.0000E-04  1.0000E-04  1.0000E-04  1.0000E-04
  59   1.0000E-04  1.0000E-04  1.0000E-04  1.0000E-04  1.0000E-04  1.0000E-04  1.0000E-04  1.0000E-04  1.0000E-04  1.0000E-04
       1.0000E-04  1.0000E-04  1.0000E-04  1.0000E-04  1.0000E-04  1.0000E-04  1.0000E-04  1.0000E-04  1.0000E-04  1.0000E-04
       1.0000E-04  1.0000E-04  1.0000E-04  1.0000E-04  1.0000E-04  1.0000E-04  1.0000E-04  1.0000E-04  1.0000E-04  1.0000E-04
       1.0000E-04  1.0000E-04  1.0000E-04  1.0000E-04  1.0000E-04  1.0000E-04  1.0000E-04  1.0000E-04  1.0000E-04  1.0000E-04
       1.0000E-04  1.0000E-04  1.0000E-04  1.0000E-04  1.0000E-04  1.0000E-04  1.0000E-04  1.0000E-04  1.0000E-04  1.0000E-04
       1.0000E-04  1.0000E-04  1.0000E-04  1.0000E-04  1.0000E-04  1.0000E-04  1.0000E-04  1.0000E-04  1.0000E-04  1.0000E-04
       1.0000E-04  1.0000E-04  1.0000E-04  1.0000E-04  1.0000E-04  1.0000E-04  1.0000E-04  1.0000E-04  1.0000E-04  1.0000E-04
       1.0000E-04  1.0000E-04  1.0000E-04  1.0000E-04  1.0000E-04  1.0000E-04
  60   1.0000E-04  1.0000E-04  1.0000E-04  1.0000E-04  1.0000E-04  1.0000E-04  1.0000E-04  1.0000E-04  1.0000E-04  1.0000E-04
       1.0000E-04  1.0000E-04  1.0000E-04  1.0000E-04  1.0000E-04  1.0000E-04  1.0000E-04  1.0000E-04  1.0000E-04  1.0000E-04
       1.0000E-04  1.0000E-04  1.0000E-04  1.0000E-04  1.0000E-04  1.0000E-04  1.0000E-04  1.0000E-04  1.0000E-04  1.0000E-04
       1.0000E-04  1.0000E-04  1.0000E-04  1.0000E-04  1.0000E-04  1.0000E-04  1.0000E-04  1.0000E-04  1.0000E-04  1.0000E-04
       1.0000E-04  1.0000E-04  1.0000E-04  1.0000E-04  1.0000E-04  1.0000E-04  1.0000E-04  1.0000E-04  1.0000E-04  1.0000E-04
       1.0000E-04  1.0000E-04  1.0000E-04  1.0000E-04  1.0000E-04  1.0000E-04  1.0000E-04  1.0000E-04  1.0000E-04  1.0000E-04
       1.0000E-04  1.0000E-04  1.0000E-04  1.0000E-04  1.0000E-04  1.0000E-04  1.0000E-04  1.0000E-04  1.0000E-04  1.0000E-04
       1.0000E-04  1.0000E-04  1.0000E-04  1.0000E-04  1.0000E-04  1.0000E-04
  61   1.0000E-04  1.0000E-04  1.0000E-04  1.0000E-04  1.0000E-04  1.0000E-04  1.0000E-04  1.0000E-04  1.0000E-04  1.0000E-04
       1.0000E-04  1.0000E-04  1.0000E-04  1.0000E-04  1.0000E-04  1.0000E-04  1.0000E-04  1.0000E-04  1.0000E-04  1.0000E-04
       1.0000E-04   0.000      1.0000E-04  1.0000E-04  1.0000E-04  1.0000E-04  1.0000E-04  1.0000E-04  1.0000E-04  1.0000E-04
       1.0000E-04  1.0000E-04  1.0000E-04  1.0000E-04  1.0000E-04  1.0000E-04  1.0000E-04  1.0000E-04  1.0000E-04  1.0000E-04
       1.0000E-04  1.0000E-04  1.0000E-04  1.0000E-04  1.0000E-04  1.0000E-04  1.0000E-04  1.0000E-04  1.0000E-04  1.0000E-04
       1.0000E-04  1.0000E-04  1.0000E-04  1.0000E-04  1.0000E-04  1.0000E-04  1.0000E-04  1.0000E-04  1.0000E-04  1.0000E-04
       1.0000E-04  1.0000E-04  1.0000E-04  1.0000E-04  1.0000E-04  1.0000E-04  1.0000E-04  1.0000E-04  1.0000E-04  1.0000E-04
       1.0000E-04  1.0000E-04  1.0000E-04  1.0000E-04  1.0000E-04  1.0000E-04
  62   1.0000E-04  1.0000E-04  1.0000E-04  1.0000E-04  1.0000E-04  1.0000E-04  1.0000E-04  1.0000E-04  1.0000E-04  1.0000E-04
       1.0000E-04  1.0000E-04  1.0000E-04  1.0000E-04  1.0000E-04  1.0000E-04  1.0000E-04  1.0000E-04  1.0000E-04  1.0000E-04
       1.0000E-04   0.000      1.0000E-04  1.0000E-04  1.0000E-04  1.0000E-04  1.0000E-04  1.0000E-04  1.0000E-04  1.0000E-04
       1.0000E-04  1.0000E-04  1.0000E-04  1.0000E-04  1.0000E-04  1.0000E-04  1.0000E-04  1.0000E-04  1.0000E-04  1.0000E-04
       1.0000E-04  1.0000E-04  1.0000E-04  1.0000E-04  1.0000E-04  1.0000E-04  1.0000E-04  1.0000E-04  1.0000E-04  1.0000E-04
       1.0000E-04  1.0000E-04  1.0000E-04  1.0000E-04  1.0000E-04  1.0000E-04  1.0000E-04  1.0000E-04  1.0000E-04  1.0000E-04
       1.0000E-04  1.0000E-04  1.0000E-04  1.0000E-04  1.0000E-04  1.0000E-04  1.0000E-04  1.0000E-04  1.0000E-04  1.0000E-04
       1.0000E-04  1.0000E-04  1.0000E-04  1.0000E-04  1.0000E-04  1.0000E-04
  63   1.0000E-04  1.0000E-04  1.0000E-04  1.0000E-04  1.0000E-04  1.0000E-04  1.0000E-04  1.0000E-04  1.0000E-04  1.0000E-04
       1.0000E-04  1.0000E-04  1.0000E-04  1.0000E-04  1.0000E-04  1.0000E-04  1.0000E-04  1.0000E-04  1.0000E-04  1.0000E-04
       1.0000E-04  1.0000E-04  1.0000E-04  1.0000E-04  1.0000E-04  1.0000E-04  1.0000E-04  1.0000E-04  1.0000E-04  1.0000E-04
       1.0000E-04  1.0000E-04  1.0000E-04  1.0000E-04  1.0000E-04  1.0000E-04  1.0000E-04  1.0000E-04  1.0000E-04  1.0000E-04
       1.0000E-04  1.0000E-04  1.0000E-04  1.0000E-04  1.0000E-04  1.0000E-04  1.0000E-04  1.0000E-04  1.0000E-04  1.0000E-04
       1.0000E-04  1.0000E-04  1.0000E-04  1.0000E-04  1.0000E-04  1.0000E-04  1.0000E-04  1.0000E-04  1.0000E-04  1.0000E-04
       1.0000E-04  1.0000E-04  1.0000E-04  1.0000E-04  1.0000E-04  1.0000E-04  1.0000E-04  1.0000E-04  1.0000E-04  1.0000E-04
       1.0000E-04  1.0000E-04  1.0000E-04  1.0000E-04  1.0000E-04  1.0000E-04
  64   1.0000E-04  1.0000E-04  1.0000E-04  1.0000E-04  1.0000E-04  1.0000E-04  1.0000E-04  1.0000E-04  1.0000E-04  1.0000E-04
       1.0000E-04  1.0000E-04  1.0000E-04  1.0000E-04  1.0000E-04  1.0000E-04  1.0000E-04  1.0000E-04  1.0000E-04  1.0000E-04
        0.000      1.0000E-04  1.0000E-04  1.0000E-04  1.0000E-04  1.0000E-04  1.0000E-04  1.0000E-04  1.0000E-04  1.0000E-04
       1.0000E-04  1.0000E-04  1.0000E-04  1.0000E-04  1.0000E-04  1.0000E-04  1.0000E-04  1.0000E-04  1.0000E-04  1.0000E-04
       1.0000E-04  1.0000E-04  1.0000E-04  1.0000E-04  1.0000E-04  1.0000E-04  1.0000E-04  1.0000E-04  1.0000E-04  1.0000E-04
       1.0000E-04  1.0000E-04  1.0000E-04  1.0000E-04  1.0000E-04  1.0000E-04  1.0000E-04  1.0000E-04  1.0000E-04  1.0000E-04
       1.0000E-04  1.0000E-04  1.0000E-04  1.0000E-04  1.0000E-04  1.0000E-04  1.0000E-04  1.0000E-04  1.0000E-04  1.0000E-04
       1.0000E-04  1.0000E-04  1.0000E-04  1.0000E-04  1.0000E-04  1.0000E-04
  65   1.0000E-04  1.0000E-04  1.0000E-04  1.0000E-04  1.0000E-04  1.0000E-04  1.0000E-04  1.0000E-04  1.0000E-04  1.0000E-04
       1.0000E-04  1.0000E-04  1.0000E-04  1.0000E-04  1.0000E-04  1.0000E-04  1.0000E-04  1.0000E-04  1.0000E-04  1.0000E-04
        0.000      1.0000E-04  1.0000E-04  1.0000E-04  1.0000E-04  1.0000E-04  1.0000E-04  1.0000E-04  1.0000E-04  1.0000E-04
       1.0000E-04  1.0000E-04  1.0000E-04  1.0000E-04  1.0000E-04  1.0000E-04  1.0000E-04  1.0000E-04  1.0000E-04  1.0000E-04
       1.0000E-04  1.0000E-04  1.0000E-04  1.0000E-04  1.0000E-04  1.0000E-04  1.0000E-04  1.0000E-04  1.0000E-04  1.0000E-04
       1.0000E-04  1.0000E-04  1.0000E-04  1.0000E-04  1.0000E-04  1.0000E-04  1.0000E-04  1.0000E-04  1.0000E-04  1.0000E-04
       1.0000E-04  1.0000E-04  1.0000E-04  1.0000E-04  1.0000E-04  1.0000E-04  1.0000E-04  1.0000E-04  1.0000E-04  1.0000E-04
       1.0000E-04  1.0000E-04  1.0000E-04  1.0000E-04  1.0000E-04  1.0000E-04
  66   1.0000E-04  1.0000E-04  1.0000E-04  1.0000E-04  1.0000E-04  1.0000E-04  1.0000E-04  1.0000E-04  1.0000E-04  1.0000E-04
       1.0000E-04  1.0000E-04  1.0000E-04  1.0000E-04  1.0000E-04  1.0000E-04  1.0000E-04  1.0000E-04  1.0000E-04  1.0000E-04
        0.000      1.0000E-04  1.0000E-04  1.0000E-04  1.0000E-04  1.0000E-04  1.0000E-04  1.0000E-04  1.0000E-04  1.0000E-04
       1.0000E-04  1.0000E-04  1.0000E-04  1.0000E-04  1.0000E-04  1.0000E-04  1.0000E-04  1.0000E-04  1.0000E-04  1.0000E-04
       1.0000E-04  1.0000E-04  1.0000E-04  1.0000E-04  1.0000E-04  1.0000E-04  1.0000E-04  1.0000E-04  1.0000E-04  1.0000E-04
       1.0000E-04  1.0000E-04  1.0000E-04  1.0000E-04  1.0000E-04  1.0000E-04  1.0000E-04  1.0000E-04  1.0000E-04  1.0000E-04
       1.0000E-04  1.0000E-04  1.0000E-04  1.0000E-04  1.0000E-04  1.0000E-04  1.0000E-04  1.0000E-04  1.0000E-04  1.0000E-04
       1.0000E-04  1.0000E-04  1.0000E-04  1.0000E-04  1.0000E-04  1.0000E-04
  67   1.0000E-04  1.0000E-04  1.0000E-04  1.0000E-04  1.0000E-04  1.0000E-04  1.0000E-04  1.0000E-04  1.0000E-04  1.0000E-04
       1.0000E-04  1.0000E-04  1.0000E-04  1.0000E-04  1.0000E-04  1.0000E-04  1.0000E-04  1.0000E-04  1.0000E-04  1.0000E-04
       1.0000E-04  1.0000E-04  1.0000E-04  1.0000E-04  1.0000E-04  1.0000E-04  1.0000E-04  1.0000E-04  1.0000E-04  1.0000E-04
       1.0000E-04  1.0000E-04  1.0000E-04  1.0000E-04  1.0000E-04  1.0000E-04  1.0000E-04  1.0000E-04  1.0000E-04  1.0000E-04
       1.0000E-04  1.0000E-04  1.0000E-04  1.0000E-04  1.0000E-04  1.0000E-04  1.0000E-04  1.0000E-04  1.0000E-04  1.0000E-04
       1.0000E-04  1.0000E-04  1.0000E-04  1.0000E-04  1.0000E-04  1.0000E-04  1.0000E-04  1.0000E-04  1.0000E-04  1.0000E-04
       1.0000E-04  1.0000E-04  1.0000E-04  1.0000E-04  1.0000E-04  1.0000E-04  1.0000E-04  1.0000E-04  1.0000E-04  1.0000E-04
       1.0000E-04  1.0000E-04  1.0000E-04  1.0000E-04  1.0000E-04  1.0000E-04
  68   1.0000E-04  1.0000E-04  1.0000E-04  1.0000E-04  1.0000E-04  1.0000E-04  1.0000E-04  1.0000E-04  1.0000E-04  1.0000E-04
       1.0000E-04  1.0000E-04  1.0000E-04  1.0000E-04  1.0000E-04  1.0000E-04  1.0000E-04  1.0000E-04  1.0000E-04   0.000    
       1.0000E-04  1.0000E-04  1.0000E-04  1.0000E-04  1.0000E-04  1.0000E-04  1.0000E-04  1.0000E-04  1.0000E-04  1.0000E-04
       1.0000E-04  1.0000E-04  1.0000E-04  1.0000E-04  1.0000E-04  1.0000E-04  1.0000E-04  1.0000E-04  1.0000E-04  1.0000E-04
       1.0000E-04  1.0000E-04  1.0000E-04  1.0000E-04  1.0000E-04  1.0000E-04  1.0000E-04  1.0000E-04  1.0000E-04  1.0000E-04
       1.0000E-04  1.0000E-04  1.0000E-04  1.0000E-04  1.0000E-04  1.0000E-04  1.0000E-04  1.0000E-04  1.0000E-04  1.0000E-04
       1.0000E-04  1.0000E-04  1.0000E-04  1.0000E-04  1.0000E-04  1.0000E-04  1.0000E-04  1.0000E-04  1.0000E-04  1.0000E-04
       1.0000E-04  1.0000E-04  1.0000E-04  1.0000E-04  1.0000E-04  1.0000E-04
  69   1.0000E-04  1.0000E-04  1.0000E-04  1.0000E-04  1.0000E-04  1.0000E-04  1.0000E-04  1.0000E-04  1.0000E-04  1.0000E-04
       1.0000E-04  1.0000E-04  1.0000E-04  1.0000E-04  1.0000E-04  1.0000E-04  1.0000E-04  1.0000E-04  1.0000E-04   0.000    
       1.0000E-04  1.0000E-04  1.0000E-04  1.0000E-04  1.0000E-04  1.0000E-04  1.0000E-04  1.0000E-04  1.0000E-04  1.0000E-04
       1.0000E-04  1.0000E-04  1.0000E-04  1.0000E-04  1.0000E-04  1.0000E-04  1.0000E-04  1.0000E-04  1.0000E-04  1.0000E-04
       1.0000E-04  1.0000E-04  1.0000E-04  1.0000E-04  1.0000E-04  1.0000E-04  1.0000E-04  1.0000E-04  1.0000E-04  1.0000E-04
       1.0000E-04  1.0000E-04  1.0000E-04  1.0000E-04  1.0000E-04  1.0000E-04  1.0000E-04  1.0000E-04  1.0000E-04  1.0000E-04
       1.0000E-04  1.0000E-04  1.0000E-04  1.0000E-04  1.0000E-04  1.0000E-04  1.0000E-04  1.0000E-04  1.0000E-04  1.0000E-04
       1.0000E-04  1.0000E-04  1.0000E-04  1.0000E-04  1.0000E-04  1.0000E-04
  70   1.0000E-04  1.0000E-04  1.0000E-04  1.0000E-04  1.0000E-04  1.0000E-04  1.0000E-04  1.0000E-04  1.0000E-04  1.0000E-04
       1.0000E-04  1.0000E-04  1.0000E-04  1.0000E-04  1.0000E-04  1.0000E-04  1.0000E-04  1.0000E-04  1.0000E-04   0.000    
       1.0000E-04  1.0000E-04  1.0000E-04  1.0000E-04  1.0000E-04  1.0000E-04  1.0000E-04  1.0000E-04  1.0000E-04  1.0000E-04
       1.0000E-04  1.0000E-04  1.0000E-04  1.0000E-04  1.0000E-04  1.0000E-04  1.0000E-04  1.0000E-04  1.0000E-04  1.0000E-04
       1.0000E-04  1.0000E-04  1.0000E-04  1.0000E-04  1.0000E-04  1.0000E-04  1.0000E-04  1.0000E-04  1.0000E-04  1.0000E-04
       1.0000E-04  1.0000E-04  1.0000E-04  1.0000E-04  1.0000E-04  1.0000E-04  1.0000E-04  1.0000E-04  1.0000E-04  1.0000E-04
       1.0000E-04  1.0000E-04  1.0000E-04  1.0000E-04  1.0000E-04  1.0000E-04  1.0000E-04  1.0000E-04  1.0000E-04  1.0000E-04
       1.0000E-04  1.0000E-04  1.0000E-04  1.0000E-04  1.0000E-04  1.0000E-04
  71   1.0000E-04  1.0000E-04  1.0000E-04  1.0000E-04  1.0000E-04  1.0000E-04  1.0000E-04  1.0000E-04  1.0000E-04  1.0000E-04
       1.0000E-04  1.0000E-04  1.0000E-04  1.0000E-04  1.0000E-04  1.0000E-04  1.0000E-04  1.0000E-04   0.000      1.0000E-04
       1.0000E-04  1.0000E-04  1.0000E-04  1.0000E-04  1.0000E-04  1.0000E-04  1.0000E-04  1.0000E-04  1.0000E-04  1.0000E-04
       1.0000E-04  1.0000E-04  1.0000E-04  1.0000E-04  1.0000E-04  1.0000E-04  1.0000E-04  1.0000E-04  1.0000E-04  1.0000E-04
       1.0000E-04  1.0000E-04  1.0000E-04  1.0000E-04  1.0000E-04  1.0000E-04  1.0000E-04  1.0000E-04  1.0000E-04  1.0000E-04
       1.0000E-04  1.0000E-04  1.0000E-04  1.0000E-04  1.0000E-04  1.0000E-04  1.0000E-04  1.0000E-04  1.0000E-04  1.0000E-04
       1.0000E-04  1.0000E-04  1.0000E-04  1.0000E-04  1.0000E-04  1.0000E-04  1.0000E-04  1.0000E-04  1.0000E-04  1.0000E-04
       1.0000E-04  1.0000E-04  1.0000E-04  1.0000E-04  1.0000E-04  1.0000E-04
  72    2.610       2.610       2.610       2.610       2.610       2.610       2.610       2.610       2.610       2.610    
        2.610       2.610       2.610       2.610       2.610       2.610       2.610       2.610       0.000       2.610    
        2.610       2.610       2.610       2.610       2.610       2.610       2.610       2.610       2.610       2.610    
        2.610       2.610       2.610       2.610       2.610       2.610       2.610       2.610       2.610       2.610    
        2.610       2.610       2.610       2.610       2.610       2.610       2.610       2.610       2.610       2.610    
        2.610       2.610       2.610       2.610       2.610       2.610       2.610       2.610       2.610       2.610    
        2.610       2.610       2.610       2.610       2.610       2.610       2.610       2.610       2.610       2.610    
        2.610       2.610       2.610       2.610       2.610       2.610    
  73    2.610       2.610       2.610       2.610       2.610       2.610       2.610       2.610       2.610       2.610    
        2.610       2.610       2.610       2.610       2.610       2.610       2.610       2.610       0.000       2.610    
        2.610       2.610       2.610       2.610       2.610       2.610       2.610       2.610       2.610       2.610    
        2.610       2.610       2.610       2.610       2.610       2.610       2.610       2.610       2.610       2.610    
        2.610       2.610       2.610       2.610       2.610       2.610       2.610       2.610       2.610       2.610    
        2.610       2.610       2.610       2.610       2.610       2.610       2.610       2.610       2.610       2.610    
        2.610       2.610       2.610       2.610       2.610       2.610       2.610       2.610       2.610       2.610    
        2.610       2.610       2.610       2.610       2.610       2.610    
  74    2.610       2.610       2.610       2.610       2.610       2.610       2.610       2.610       2.610       2.610    
        2.610       2.610       2.610       2.610       2.610       2.610       2.610       0.000       0.000       2.610    
        2.610       2.610       2.610       2.610       2.610       2.610       2.610       2.610       2.610       2.610    
        2.610       2.610       2.610       2.610       2.610       2.610       2.610       2.610       2.610       2.610    
        2.610       2.610       2.610       2.610       2.610       2.610       2.610       2.610       2.610       2.610    
        2.610       2.610       2.610       2.610       2.610       2.610       2.610       2.610       2.610       2.610    
        2.610       2.610       2.610       2.610       2.610       2.610       2.610       2.610       2.610       2.610    
        2.610       2.610       2.610       2.610       2.610       2.610    
  75    2.610       2.610       2.610       2.610       2.610       2.610       2.610       2.610       2.610       2.610    
        2.610       2.610       2.610       2.610       2.610       2.610       2.610       0.000       2.610       2.610    
        2.610       2.610       2.610       2.610       2.610       2.610       2.610       2.610       2.610       2.610    
        2.610       2.610       2.610       2.610       2.610       2.610       2.610       2.610       2.610       2.610    
        2.610       2.610       2.610       2.610       2.610       2.610       2.610       2.610       2.610       2.610    
        2.610       2.610       2.610       2.610       2.610       2.610       2.610       2.610       2.610       2.610    
        2.610       2.610       2.610       2.610       2.610       2.610       2.610       2.610       2.610       2.610    
        2.610       2.610       2.610       2.610       2.610       2.610    
  76    2.610       2.610       2.610       2.610       2.610       2.610       2.610       2.610       2.610       2.610    
        2.610       2.610       2.610       2.610       2.610       2.610       2.610       0.000       2.610       2.610    
        2.610       2.610       2.610       2.610       2.610       2.610       2.610       2.610       2.610       2.610    
        2.610       2.610       2.610       2.610       2.610       2.610       2.610       2.610       2.610       2.610    
        2.610       2.610       2.610       2.610       2.610       2.610       2.610       2.610       2.610       2.610    
        2.610       2.610       2.610       2.610       2.610       2.610       2.610       2.610       2.610       2.610    
        2.610       2.610       2.610       2.610       2.610       2.610       2.610       2.610       2.610       2.610    
        2.610       2.610       2.610       2.610       2.610       2.610    
  77    2.610       2.610       2.610       2.610       2.610       2.610       2.610       2.610       2.610       2.610    
        2.610       2.610       2.610       2.610       2.610       2.610       0.000       0.000       2.610       2.610    
        2.610       2.610       2.610       2.610       2.610       2.610       2.610       2.610       2.610       2.610    
        2.610       2.610       2.610       2.610       2.610       2.610       2.610       2.610       2.610       2.610    
        2.610       2.610       2.610       2.610       2.610       2.610       2.610       2.610       2.610       2.610    
        2.610       2.610       2.610       2.610       2.610       2.610       2.610       2.610       2.610       2.610    
        2.610       2.610       2.610       2.610       2.610       2.610       2.610       2.610       2.610       2.610    
        2.610       2.610       2.610       2.610       2.610       2.610    
  78    2.610       2.610       2.610       2.610       2.610       2.610       2.610       2.610       2.610       2.610    
        2.610       2.610       2.610       2.610       2.610       2.610       0.000       0.000       2.610       2.610    
        2.610       2.610       2.610       2.610       2.610       2.610       2.610       2.610       2.610       2.610    
        2.610       2.610       2.610       2.610       2.610       2.610       2.610       2.610       2.610       2.610    
        2.610       2.610       2.610       2.610       2.610       2.610       2.610       2.610       2.610       2.610    
        2.610       2.610       2.610       2.610       2.610       2.610       2.610       2.610       2.610       2.610    
        2.610       2.610       2.610       2.610       2.610       2.610       2.610       2.610       2.610       2.610    
        2.610       2.610       2.610       2.610       2.610       2.610    
  79    2.610       2.610       2.610       2.610       2.610       2.610       2.610       2.610       2.610       2.610    
        2.610       2.610       2.610       2.610       2.610       2.610       0.000       0.000       2.610       2.610    
        2.610       2.610       2.610       2.610       2.610       2.610       2.610       2.610       2.610       2.610    
        2.610       2.610       2.610       2.610       2.610       2.610       2.610       2.610       2.610       2.610    
        2.610       2.610       2.610       2.610       2.610       2.610       2.610       2.610       2.610       2.610    
        2.610       2.610       2.610       2.610       2.610       2.610       2.610       2.610       2.610       2.610    
        2.610       2.610       2.610       2.610       2.610       2.610       2.610       2.610       2.610       2.610    
        2.610       2.610       2.610       2.610       2.610       2.610    
  80    2.610       2.610       2.610       2.610       2.610       2.610       2.610       2.610       2.610       2.610    
        2.610       2.610       2.610       2.610       2.610       2.610       0.000       2.610       2.610       2.610    
        2.610       2.610       2.610       2.610       2.610       2.610       2.610       2.610       2.610       2.610    
        2.610       2.610       2.610       2.610       2.610       2.610       2.610       2.610       2.610       2.610    
        2.610       2.610       2.610       2.610       2.610       2.610       2.610       2.610       2.610       2.610    
        2.610       2.610       2.610       2.610       2.610       2.610       2.610       2.610       2.610       2.610    
        2.610       2.610       2.610       2.610       2.610       2.610       2.610       2.610       2.610       2.610    
        2.610       2.610       2.610       2.610       2.610       2.610    
  81    2.610       2.610       2.610       2.610       2.610       2.610       2.610       2.610       2.610       2.610    
        2.610       2.610       2.610       2.610       2.610       0.000       0.000       2.610       2.610       2.610    
        2.610       2.610       2.610       2.610       2.610       2.610       2.610       2.610       2.610       2.610    
        2.610       2.610       2.610       2.610       2.610       2.610       2.610       2.610       2.610       2.610    
        2.610       2.610       2.610       2.610       2.610       2.610       2.610       2.610       2.610       2.610    
        2.610       2.610       2.610       2.610       2.610       2.610       2.610       2.610       2.610       2.610    
        2.610       2.610       2.610       2.610       2.610       2.610       2.610       2.610       2.610       2.610    
        2.610       2.610       2.610       2.610       2.610       2.610    
  82    2.610       2.610       2.610       2.610       2.610       2.610       2.610       2.610       2.610       2.610    
        2.610       2.610       2.610       2.610       2.610       0.000       0.000       2.610       2.610       2.610    
        2.610       2.610       2.610       2.610       2.610       2.610       2.610       2.610       2.610       2.610    
        2.610       2.610       2.610       2.610       2.610       2.610       2.610       2.610       2.610       2.610    
        2.610       2.610       2.610       2.610       2.610       2.610       2.610       2.610       2.610       2.610    
        2.610       2.610       2.610       2.610       2.610       2.610       2.610       2.610       2.610       2.610    
        2.610       2.610       2.610       2.610       2.610       2.610       2.610       2.610       2.610       2.610    
        2.610       2.610       2.610       2.610       2.610       2.610    
  83    2.610       2.610       2.610       2.610       2.610       2.610       2.610       2.610       2.610       2.610    
        2.610       2.610       2.610       2.610       2.610       0.000       2.610       2.610       2.610       2.610    
        2.610       2.610       2.610       2.610       2.610       2.610       2.610       2.610       2.610       2.610    
        2.610       2.610       2.610       2.610       2.610       2.610       2.610       2.610       2.610       2.610    
        2.610       2.610       2.610       2.610       2.610       2.610       2.610       2.610       2.610       2.610    
        2.610       2.610       2.610       2.610       2.610       2.610       2.610       2.610       2.610       2.610    
        2.610       2.610       2.610       2.610       2.610       2.610       2.610       2.610       2.610       2.610    
        2.610       2.610       2.610       2.610       2.610       2.610    
  84    2.610       2.610       2.610       2.610       2.610       2.610       2.610       2.610       2.610       2.610    
        2.610       2.610       2.610       2.610       0.000       0.000       2.610       2.610       2.610       2.610    
        2.610       2.610       2.610       2.610       2.610       2.610       2.610       2.610       2.610       2.610    
        2.610       2.610       2.610       2.610       2.610       2.610       2.610       2.610       2.610       2.610    
        2.610       2.610       2.610       2.610       2.610       2.610       2.610       2.610       2.610       2.610    
        2.610       2.610       2.610       2.610       2.610       2.610       2.610       2.610       2.610       2.610    
        2.610       2.610       2.610       2.610       2.610       2.610       2.610       2.610       2.610       2.610    
        2.610       2.610       2.610       2.610       2.610       2.610    
  85    2.610       2.610       2.610       2.610       2.610       2.610       2.610       2.610       2.610       2.610    
        2.610       2.610       2.610       2.610       0.000       0.000       2.610       2.610       2.610       2.610    
        2.610       2.610       2.610       2.610       2.610       2.610       2.610       2.610       2.610       2.610    
        2.610       2.610       2.610       2.610       2.610       2.610       2.610       2.610       2.610       2.610    
        2.610       2.610       2.610       2.610       2.610       2.610       2.610       2.610       2.610       2.610    
        2.610       2.610       2.610       2.610       2.610       2.610       2.610       2.610       2.610       2.610    
        2.610       2.610       2.610       2.610       2.610       2.610       2.610       2.610       2.610       2.610    
        2.610       2.610       2.610       2.610       2.610       2.610    
  86    2.610       2.610       2.610       2.610       2.610       2.610       2.610       2.610       2.610       2.610    
        2.610       2.610       2.610       2.610       0.000       2.610       2.610       2.610       2.610       2.610    
        2.610       2.610       2.610       2.610       2.610       2.610       2.610       2.610       2.610       2.610    
        2.610       2.610       2.610       2.610       2.610       2.610       2.610       2.610       2.610       2.610    
        2.610       2.610       2.610       2.610       2.610       2.610       2.610       2.610       2.610       2.610    
        2.610       2.610       2.610       2.610       2.610       2.610       2.610       2.610       2.610       2.610    
        2.610       2.610       2.610       2.610       2.610       2.610       2.610       2.610       2.610       2.610    
        2.610       2.610       2.610       2.610       2.610       2.610    
  87    2.610       2.610       2.610       2.610       2.610       2.610       2.610       2.610       2.610       2.610    
        2.610       2.610       2.610       0.000       0.000       2.610       2.610       2.610       2.610       2.610    
        2.610       2.610       2.610       2.610       2.610       2.610       2.610       2.610       2.610       2.610    
        2.610       2.610       2.610       2.610       2.610       2.610       2.610       2.610       2.610       2.610    
        2.610       2.610       2.610       2.610       2.610       2.610       2.610       2.610       2.610       2.610    
        2.610       2.610       2.610       2.610       2.610       2.610       2.610       2.610       2.610       2.610    
        2.610       2.610       2.610       2.610       2.610       2.610       2.610       2.610       2.610       2.610    
        2.610       2.610       2.610       2.610       2.610       2.610    
  88    2.610       2.610       2.610       2.610       2.610       2.610       2.610       2.610       2.610       2.610    
        2.610       2.610       2.610       0.000       0.000       2.610       2.610       2.610       2.610       2.610    
        2.610       2.610       2.610       2.610       2.610       2.610       2.610       2.610       2.610       2.610    
        2.610       2.610       2.610       2.610       2.610       2.610       2.610       2.610       2.610       2.610    
        2.610       2.610       2.610       2.610       2.610       2.610       2.610       2.610       2.610       2.610    
        2.610       2.610       2.610       2.610       2.610       2.610       2.610       2.610       2.610       2.610    
        2.610       2.610       2.610       2.610       2.610       2.610       2.610       2.610       2.610       2.610    
        2.610       2.610       2.610       2.610       2.610       2.610    
  89    2.610       2.610       2.610       2.610       2.610       2.610       2.610       2.610       2.610       2.610    
        2.610       2.610       2.610       0.000       2.610       2.610       2.610       2.610       2.610       2.610    
        2.610       2.610       2.610       2.610       2.610       2.610       2.610       2.610       2.610       2.610    
        2.610       2.610       2.610       2.610       2.610       2.610       2.610       2.610       2.610       2.610    
        2.610       2.610       2.610       2.610       2.610       2.610       2.610       2.610       2.610       2.610    
        2.610       2.610       2.610       2.610       2.610       2.610       2.610       2.610       2.610       2.610    
        2.610       2.610       2.610       2.610       2.610       2.610       2.610       2.610       2.610       2.610    
        2.610       2.610       2.610       2.610       2.610       2.610    
  90    2.610       2.610       2.610       2.610       2.610       2.610       2.610       2.610       2.610       2.610    
        2.610       2.610       0.000       0.000       2.610       2.610       2.610       2.610       2.610       2.610    
        2.610       2.610       2.610       2.610       2.610       2.610       2.610       2.610       2.610       2.610    
        2.610       2.610       2.610       2.610       2.610       2.610       2.610       2.610       2.610       2.610    
        2.610       2.610       2.610       2.610       2.610       2.610       2.610       2.610       2.610       2.610    
        2.610       2.610       2.610       2.610       2.610       2.610       2.610       2.610       2.610       2.610    
        2.610       2.610       2.610       2.610       2.610       2.610       2.610       2.610       2.610       2.610    
        2.610       2.610       2.610       2.610       2.610       2.610    
  91    2.610       2.610       2.610       2.610       2.610       2.610       2.610       2.610       2.610       2.610    
        2.610       2.610       0.000       0.000       2.610       2.610       2.610       2.610       2.610       2.610    
        2.610       2.610       2.610       2.610       2.610       2.610       2.610       2.610       2.610       2.610    
        2.610       2.610       2.610       2.610       2.610       2.610       2.610       2.610       2.610       2.610    
        2.610       2.610       2.610       2.610       2.610       2.610       2.610       2.610       2.610       2.610    
        2.610       2.610       2.610       2.610       2.610       2.610       2.610       2.610       2.610       2.610    
        2.610       2.610       2.610       2.610       2.610       2.610       2.610       2.610       2.610       2.610    
        2.610       2.610       2.610       2.610       2.610       2.610    
  92    2.610       2.610       2.610       2.610       2.610       2.610       2.610       2.610       2.610       2.610    
        2.610       2.610       0.000       2.610       2.610       2.610       2.610       2.610       2.610       2.610    
        2.610       2.610       2.610       2.610       2.610       2.610       2.610       2.610       2.610       2.610    
        2.610       2.610       2.610       2.610       2.610       2.610       2.610       2.610       2.610       2.610    
        2.610       2.610       2.610       2.610       2.610       2.610       2.610       2.610       2.610       2.610    
        2.610       2.610       2.610       2.610       2.610       2.610       2.610       2.610       2.610       2.610    
        2.610       2.610       2.610       2.610       2.610       2.610       2.610       2.610       2.610       2.610    
        2.610       2.610       2.610       2.610       2.610       2.610    
  93    2.610       2.610       2.610       2.610       2.610       2.610       2.610       2.610       2.610       2.610    
        2.610       2.610       0.000       2.610       2.610       2.610       2.610       2.610       2.610       2.610    
        2.610       2.610       2.610       2.610       2.610       2.610       2.610       2.610       2.610       2.610    
        2.610       2.610       2.610       2.610       2.610       2.610       2.610       2.610       2.610       2.610    
        2.610       2.610       2.610       2.610       2.610       2.610       2.610       2.610       2.610       2.610    
        2.610       2.610       2.610       2.610       2.610       2.610       2.610       2.610       2.610       2.610    
        2.610       2.610       2.610       2.610       2.610       2.610       2.610       2.610       2.610       2.610    
        2.610       2.610       2.610       2.610       2.610       2.610    
  94    2.610       2.610       2.610       2.610       2.610       2.610       2.610       2.610       2.610       2.610    
        2.610       0.000       0.000       2.610       2.610       2.610       2.610       2.610       2.610       2.610    
        2.610       2.610       2.610       2.610       2.610       2.610       2.610       2.610       2.610       2.610    
        2.610       2.610       2.610       2.610       2.610       2.610       2.610       2.610       2.610       2.610    
        2.610       2.610       2.610       2.610       2.610       2.610       2.610       2.610       2.610       2.610    
        2.610       2.610       2.610       2.610       2.610       2.610       2.610       2.610       2.610       2.610    
        2.610       2.610       2.610       2.610       2.610       2.610       2.610       2.610       2.610       2.610    
        2.610       2.610       2.610       2.610       2.610       2.610    
  95    2.610       2.610       2.610       2.610       2.610       2.610       2.610       2.610       2.610       2.610    
        2.610       0.000       2.610       2.610       2.610       2.610       2.610       2.610       2.610       2.610    
        2.610       2.610       2.610       2.610       2.610       2.610       2.610       2.610       2.610       2.610    
        2.610       2.610       2.610       2.610       2.610       2.610       2.610       2.610       2.610       2.610    
        2.610       2.610       2.610       2.610       2.610       2.610       2.610       2.610       2.610       2.610    
        2.610       2.610       2.610       2.610       2.610       2.610       2.610       2.610       2.610       2.610    
        2.610       2.610       2.610       2.610       2.610       2.610       2.610       2.610       2.610       2.610    
        2.610       2.610       2.610       2.610       2.610       2.610    
  96    2.610       2.610       2.610       2.610       2.610       2.610       2.610       2.610       2.610       2.610    
        2.610       0.000       2.610       2.610       2.610       2.610       2.610       2.610       2.610       2.610    
        2.610       2.610       2.610       2.610       2.610       2.610       2.610       2.610       2.610       2.610    
        2.610       2.610       2.610       2.610       2.610       2.610       2.610       2.610       2.610       2.610    
        2.610       2.610       2.610       2.610       2.610       2.610       2.610       2.610       2.610       2.610    
        2.610       2.610       2.610       2.610       2.610       2.610       2.610       2.610       2.610       2.610    
        2.610       2.610       2.610       2.610       2.610       2.610       2.610       2.610       2.610       2.610    
        2.610       2.610       2.610       2.610       2.610       2.610    
  97    2.610       2.610       2.610       2.610       2.610       2.610       2.610       2.610       2.610       2.610    
        0.000       0.000       2.610       2.610       2.610       2.610       2.610       2.610       2.610       2.610    
        2.610       2.610       2.610       2.610       2.610       2.610       2.610       2.610       2.610       2.610    
        2.610       2.610       2.610       2.610       2.610       2.610       2.610       2.610       2.610       2.610    
        2.610       2.610       2.610       2.610       2.610       2.610       2.610       2.610       2.610       2.610    
        2.610       2.610       2.610       2.610       2.610       2.610       2.610       2.610       2.610       2.610    
        2.610       2.610       2.610       2.610       2.610       2.610       2.610       2.610       2.610       2.610    
        2.610       2.610       2.610       2.610       2.610       2.610    
  98    2.610       2.610       2.610       2.610       2.610       2.610       2.610       2.610       2.610       2.610    
        0.000       2.610       2.610       2.610       2.610       2.610       2.610       2.610       2.610       2.610    
        2.610       2.610       2.610       2.610       2.610       2.610       2.610       2.610       2.610       2.610    
        2.610       2.610       2.610       2.610       2.610       2.610       2.610       2.610       2.610       2.610    
        2.610       2.610       2.610       2.610       2.610       2.610       2.610       2.610       2.610       2.610    
        2.610       2.610       2.610       2.610       2.610       2.610       2.610       2.610       2.610       2.610    
        2.610       2.610       2.610       2.610       2.610       2.610       2.610       2.610       2.610       2.610    
        2.610       2.610       2.610       2.610       2.610       2.610    
  99    2.610       2.610       2.610       2.610       2.610       2.610       2.610       2.610       2.610       2.610    
        0.000       2.610       2.610       2.610       2.610       2.610       2.610       2.610       2.610       2.610    
        2.610       2.610       2.610       2.610       2.610       2.610       2.610       2.610       2.610       2.610    
        2.610       2.610       2.610       2.610       2.610       2.610       2.610       2.610       2.610       2.610    
        2.610       2.610       2.610       2.610       2.610       2.610       2.610       2.610       2.610       2.610    
        2.610       2.610       2.610       2.610       2.610       2.610       2.610       2.610       2.610       2.610    
        2.610       2.610       2.610       2.610       2.610       2.610       2.610       2.610       2.610       2.610    
        2.610       2.610       2.610       2.610       2.610       2.610    
 100    2.610       2.610       2.610       2.610       2.610       2.610       2.610       2.610       2.610       0.000    
        0.000       2.610       2.610       2.610       2.610       2.610       2.610       2.610       2.610       2.610    
        2.610       2.610       2.610       2.610       2.610       2.610       2.610       2.610       2.610       2.610    
        2.610       2.610       2.610       2.610       2.610       2.610       2.610       2.610       2.610       2.610    
        2.610       2.610       2.610       2.610       2.610       2.610       2.610       2.610       2.610       2.610    
        2.610       2.610       2.610       2.610       2.610       2.610       2.610       2.610       2.610       2.610    
        2.610       2.610       2.610       2.610       2.610       2.610       2.610       2.610       2.610       2.610    
        2.610       2.610       2.610       2.610       2.610       2.610    
 101    2.610       2.610       2.610       2.610       2.610       2.610       2.610       2.610       2.610       0.000    
        2.610       2.610       2.610       2.610       2.610       2.610       2.610       2.610       2.610       2.610    
        2.610       2.610       2.610       2.610       2.610       2.610       2.610       2.610       2.610       2.610    
        2.610       2.610       2.610       2.610       2.610       2.610       2.610       2.610       2.610       2.610    
        2.610       2.610       2.610       2.610       2.610       2.610       2.610       2.610       2.610       2.610    
        2.610       2.610       2.610       2.610       2.610       2.610       2.610       2.610       2.610       2.610    
        2.610       2.610       2.610       2.610       2.610       2.610       2.610       2.610       2.610       2.610    
        2.610       2.610       2.610       2.610       2.610       2.610    
 102    2.610       2.610       2.610       2.610       2.610       2.610       2.610       2.610       2.610       0.000    
        2.610       2.610       2.610       2.610       2.610       2.610       2.610       2.610       2.610       2.610    
        2.610       2.610       2.610       2.610       2.610       2.610       2.610       2.610       2.610       2.610    
        2.610       2.610       2.610       2.610       2.610       2.610       2.610       2.610       2.610       2.610    
        2.610       2.610       2.610       2.610       2.610       2.610       2.610       2.610       2.610       2.610    
        2.610       2.610       2.610       2.610       2.610       2.610       2.610       2.610       2.610       2.610    
        2.610       2.610       2.610       2.610       2.610       2.610       2.610       2.610       2.610       2.610    
        2.610       2.610       2.610       2.610       2.610       2.610    
 103    2.610       2.610       2.610       2.610       2.610       2.610       2.610       2.610       0.000       0.000    
        2.610       2.610       2.610       2.610       2.610       2.610       2.610       2.610       2.610       2.610    
        2.610       2.610       2.610       2.610       2.610       2.610       2.610       2.610       2.610       2.610    
        2.610       2.610       2.610       2.610       2.610       2.610       2.610       2.610       2.610       2.610    
        2.610       2.610       2.610       2.610       2.610       2.610       2.610       2.610       2.610       2.610    
        2.610       2.610       2.610       2.610       2.610       2.610       2.610       2.610       2.610       2.610    
        2.610       2.610       2.610       2.610       2.610       2.610       2.610       2.610       2.610       2.610    
        2.610       2.610       2.610       2.610       2.610       2.610    
 104    2.610       2.610       2.610       2.610       2.610       2.610       2.610       2.610       0.000       0.000    
        2.610       2.610       2.610       2.610       2.610       2.610       2.610       2.610       2.610       2.610    
        2.610       2.610       2.610       2.610       2.610       2.610       2.610       2.610       2.610       2.610    
        2.610       2.610       2.610       2.610       2.610       2.610       2.610       2.610       2.610       2.610    
        2.610       2.610       2.610       2.610       2.610       0.000       0.000       0.000       0.000       0.000    
        0.000       2.610       2.610       2.610       2.610       2.610       2.610       2.610       2.610       2.610    
        2.610       2.610       2.610       2.610       2.610       2.610       2.610       2.610       2.610       2.610    
        2.610       2.610       2.610       2.610       2.610       2.610    
 105    2.610       2.610       2.610       2.610       2.610       2.610       2.610       2.610       0.000       2.610    
        2.610       2.610       2.610       2.610       2.610       2.610       2.610       2.610       2.610       2.610    
        2.610       2.610       2.610       2.610       2.610       2.610       2.610       2.610       2.610       2.610    
        2.610       2.610       2.610       2.610       2.610       2.610       2.610       2.610       2.610       2.610    
        2.610       2.610       0.000       0.000       0.000       0.000       0.000       0.000       0.000       0.000    
        0.000       0.000       0.000       0.000       0.000       0.000       0.000       0.000       2.610       2.610    
        2.610       2.610       2.610       2.610       2.610       2.610       2.610       2.610       2.610       2.610    
        2.610       2.610       2.610       2.610       2.610       2.610    
 106    2.610       2.610       2.610       2.610       2.610       2.610       2.610       2.610       0.000       2.610    
        2.610       2.610       2.610       2.610       2.610       2.610       2.610       2.610       2.610       2.610    
        2.610       2.610       2.610       2.610       2.610       2.610       2.610       2.610       2.610       2.610    
        2.610       2.610       2.610       2.610       2.610       2.610       2.610       2.610       2.610       2.610    
        2.610       2.610       0.000       0.000       0.000       0.000       0.000       0.000       0.000       0.000    
        0.000       0.000       0.000       0.000       0.000       0.000       0.000       0.000       0.000       0.000    
        0.000       0.000       0.000       2.610       2.610       2.610       2.610       2.610       2.610       2.610    
        2.610       2.610       2.610       2.610       2.610       2.610    
 107    2.610       2.610       2.610       2.610       2.610       2.610       2.610       0.000       0.000       2.610    
        2.610       2.610       2.610       2.610       2.610       2.610       2.610       2.610       2.610       2.610    
        2.610       2.610       2.610       2.610       2.610       2.610       2.610       2.610       2.610       2.610    
        2.610       2.610       2.610       2.610       2.610       2.610       2.610       2.610       2.610       2.610    
        2.610       0.000       0.000       0.000       0.000       0.000       0.000       0.000       0.000       0.000    
        0.000       0.000       0.000       0.000       0.000       0.000       0.000       0.000       0.000       0.000    
        0.000       0.000       0.000       0.000       0.000       0.000       0.000       0.000       2.610       2.610    
        2.610       2.610       2.610       2.610       2.610       2.610    
 108    2.610       2.610       2.610       2.610       2.610       2.610       2.610       0.000       2.610       2.610    
        2.610       2.610       2.610       2.610       2.610       2.610       2.610       2.610       2.610       2.610    
        2.610       2.610       2.610       2.610       2.610       2.610       2.610       2.610       2.610       2.610    
        2.610       2.610       2.610       2.610       2.610       2.610       2.610       2.610       2.610       2.610    
        2.610       0.000       0.000       0.000       0.000       0.000       0.000       0.000       0.000       0.000    
        0.000       0.000       0.000       0.000       0.000       0.000       0.000       0.000       0.000       0.000    
        0.000       0.000       0.000       0.000       0.000       0.000       0.000       0.000       0.000       0.000    
        0.000       0.000       2.610       2.610       2.610       2.610    
 109    2.610       2.610       2.610       2.610       2.610       2.610       2.610       0.000       2.610       2.610    
        2.610       2.610       2.610       2.610       2.610       2.610       2.610       2.610       2.610       2.610    
        2.610       2.610       2.610       2.610       2.610       2.610       2.610       2.610       2.610       2.610    
        2.610       2.610       2.610       2.610       2.610       2.610       2.610       2.610       2.610       2.610    
        0.000       0.000       0.000       0.000       0.000       0.000       0.000       0.000       0.000       0.000    
        0.000       0.000       0.000       0.000       0.000       0.000       0.000       0.000       0.000       0.000    
        0.000       0.000       0.000       0.000       0.000       0.000       0.000       0.000       0.000       0.000    
        0.000       0.000       0.000       0.000       0.000       2.610    
 110    2.610       2.610       2.610       2.610       2.610       2.610       0.000       0.000       2.610       2.610    
        2.610       2.610       2.610       2.610       2.610       2.610       2.610       2.610       2.610       2.610    
        2.610       2.610       2.610       2.610       2.610       2.610       2.610       2.610       2.610       2.610    
        2.610       2.610       2.610       2.610       2.610       2.610       2.610       2.610       2.610       2.610    
        0.000       0.000       0.000       0.000       0.000       0.000       0.000       0.000       0.000       0.000    
        0.000       0.000       0.000       0.000       0.000       0.000       0.000       0.000       0.000       0.000    
        0.000       0.000       0.000       0.000       0.000       0.000       0.000       0.000       0.000       0.000    
        0.000       0.000       0.000       0.000       0.000       0.000    
 111    2.610       2.610       2.610       2.610       2.610       2.610       0.000       2.610       2.610       2.610    
        2.610       2.610       2.610       2.610       2.610       2.610       2.610       2.610       2.610       2.610    
        2.610       2.610       2.610       2.610       2.610       2.610       2.610       2.610       2.610       2.610    
        2.610       2.610       2.610       2.610       2.610       2.610       2.610       2.610       2.610       0.000    
        0.000       0.000       0.000       0.000       0.000       0.000       0.000       0.000       0.000       0.000    
        0.000       0.000       0.000       0.000       0.000       0.000       0.000       0.000       0.000       0.000    
        0.000       0.000       0.000       0.000       0.000       0.000       0.000       0.000       0.000       0.000    
        0.000       0.000       0.000       0.000       0.000       0.000    
 112    2.610       2.610       2.610       2.610       2.610       2.610       0.000       2.610       2.610       2.610    
        2.610       2.610       2.610       2.610       2.610       2.610       2.610       2.610       2.610       2.610    
        2.610       2.610       2.610       2.610       2.610       2.610       2.610       2.610       2.610       2.610    
        2.610       2.610       2.610       2.610       2.610       2.610       2.610       2.610       2.610       0.000    
        0.000       0.000       0.000       0.000       0.000       0.000       0.000       0.000       0.000       0.000    
        0.000       0.000       0.000       0.000       0.000       0.000       0.000       0.000       0.000       0.000    
        0.000       0.000       0.000       0.000       0.000       0.000       0.000       0.000       0.000       0.000    
        0.000       0.000       0.000       0.000       0.000       0.000    
 113    2.610       2.610       2.610       2.610       2.610       0.000       0.000       2.610       2.610       2.610    
        2.610       2.610       2.610       2.610       2.610       2.610       2.610       2.610       2.610       2.610    
        2.610       2.610       2.610       2.610       2.610       2.610       2.610       2.610       2.610       2.610    
        2.610       2.610       2.610       2.610       2.610       2.610       2.610       2.610       0.000       0.000    
        0.000       0.000       0.000       0.000       0.000       0.000       0.000       0.000       0.000       0.000    
        0.000       0.000       0.000       0.000       0.000       0.000       0.000       0.000       0.000       0.000    
        0.000       0.000       0.000       0.000       0.000       0.000       0.000       0.000       0.000       0.000    
        0.000       0.000       0.000       0.000       0.000       0.000    
 114    2.610       2.610       2.610       2.610       2.610       0.000       2.610       2.610       2.610       2.610    
        2.610       2.610       2.610       2.610       2.610       2.610       2.610       2.610       2.610       2.610    
        2.610       2.610       2.610       2.610       2.610       2.610       2.610       2.610       2.610       2.610    
        2.610       2.610       2.610       2.610       2.610       2.610       2.610       2.610       0.000       0.000    
        0.000       0.000       0.000       0.000       0.000       0.000       0.000       0.000       0.000       0.000    
        0.000       0.000       0.000       0.000       0.000       0.000       0.000       0.000       0.000       0.000    
        0.000       0.000       0.000       0.000       0.000       0.000       0.000       0.000       0.000       0.000    
        0.000       0.000       0.000       0.000       0.000       0.000    
 115    2.610       2.610       2.610       2.610       2.610       0.000       2.610       2.610       2.610       2.610    
        2.610       2.610       2.610       2.610       2.610       2.610       2.610       2.610       2.610       2.610    
        2.610       2.610       2.610       2.610       2.610       2.610       2.610       2.610       2.610       2.610    
        2.610       2.610       2.610       2.610       2.610       2.610       2.610       2.610       2.610       0.000    
        0.000       0.000       0.000       0.000       0.000       0.000       0.000       0.000       0.000       0.000    
        0.000       0.000       0.000       0.000       0.000       0.000       0.000       0.000       0.000       0.000    
        0.000       0.000       0.000       0.000       0.000       0.000       0.000       0.000       0.000       0.000    
        0.000       0.000       0.000       0.000       0.000       0.000    
 116    2.610       2.610       2.610       2.610       0.000       0.000       2.610       2.610       2.610       2.610    
        2.610       2.610       2.610       2.610       2.610       2.610       2.610       2.610       2.610       2.610    
        2.610       2.610       2.610       2.610       2.610       2.610       2.610       2.610       2.610       2.610    
        2.610       2.610       2.610       2.610       2.610       2.610       2.610       2.610       2.610       0.000    
        0.000       0.000       0.000       0.000       0.000       0.000       0.000       0.000       0.000       0.000    
        0.000       0.000       0.000       0.000       0.000       0.000       0.000       0.000       0.000       0.000    
        0.000       0.000       0.000       0.000       0.000       0.000       0.000       0.000       0.000       0.000    
        0.000       0.000       0.000       0.000       0.000       0.000    
 117    2.610       2.610       2.610       2.610       0.000       2.610       2.610       2.610       2.610       2.610    
        2.610       2.610       2.610       2.610       2.610       2.610       2.610       2.610       2.610       2.610    
        2.610       2.610       2.610       2.610       2.610       2.610       2.610       2.610       2.610       2.610    
        2.610       2.610       2.610       2.610       2.610       2.610       2.610       2.610       2.610       2.610    
        0.000       0.000       0.000       0.000       0.000       0.000       0.000       0.000       0.000       0.000    
        0.000       0.000       0.000       0.000       0.000       0.000       0.000       0.000       0.000       0.000    
        0.000       0.000       0.000       0.000       0.000       0.000       0.000       0.000       0.000       0.000    
        0.000       0.000       0.000       0.000       0.000       0.000    
 118    2.610       2.610       2.610       2.610       0.000       2.610       2.610       2.610       2.610       2.610    
        2.610       2.610       2.610       2.610       2.610       2.610       2.610       2.610       2.610       2.610    
        2.610       2.610       2.610       2.610       2.610       2.610       2.610       2.610       2.610       2.610    
        2.610       2.610       2.610       2.610       2.610       2.610       2.610       2.610       2.610       2.610    
        0.000       0.000       0.000       0.000       0.000       0.000       0.000       0.000       0.000       0.000    
        0.000       0.000       0.000       0.000       0.000       0.000       0.000       0.000       0.000       0.000    
        0.000       0.000       0.000       0.000       0.000       0.000       0.000       0.000       0.000       0.000    
        0.000       0.000       0.000       0.000       0.000       0.000    
 119    2.610       2.610       2.610       2.610       0.000       2.610       2.610       2.610       2.610       2.610    
        2.610       2.610       2.610       2.610       2.610       2.610       2.610       2.610       2.610       2.610    
        2.610       2.610       2.610       2.610       2.610       2.610       2.610       2.610       2.610       2.610    
        2.610       2.610       2.610       2.610       2.610       2.610       2.610       2.610       2.610       2.610    
        2.610       0.000       0.000       0.000       0.000       0.000       0.000       0.000       0.000       0.000    
        0.000       0.000       0.000       0.000       0.000       0.000       0.000       0.000       0.000       0.000    
        0.000       0.000       0.000       0.000       0.000       0.000       0.000       0.000       0.000       0.000    
        0.000       0.000       0.000       0.000       0.000       0.000    
 120    2.610       2.610       2.610       0.000       2.610       2.610       2.610       2.610       2.610       2.610    
        2.610       2.610       2.610       2.610       2.610       2.610       2.610       2.610       2.610       2.610    
        2.610       2.610       2.610       2.610       2.610       2.610       2.610       2.610       2.610       2.610    
        2.610       2.610       2.610       2.610       2.610       2.610       2.610       2.610       2.610       2.610    
        2.610       0.000       0.000       0.000       0.000       0.000       0.000       0.000       0.000       0.000    
        0.000       0.000       0.000       0.000       0.000       0.000       0.000       0.000       0.000       0.000    
        0.000       0.000       0.000       0.000       0.000       0.000       0.000       0.000       0.000       0.000    
        0.000       0.000       0.000       0.000       0.000       0.000    
 121    2.610       2.610       2.610       0.000       2.610       2.610       2.610       2.610       2.610       2.610    
        2.610       2.610       2.610       2.610       2.610       2.610       2.610       2.610       2.610       2.610    
        2.610       2.610       2.610       2.610       2.610       2.610       2.610       2.610       2.610       2.610    
        2.610       2.610       2.610       2.610       2.610       2.610       2.610       2.610       2.610       2.610    
        2.610       2.610       0.000       0.000       0.000       0.000       0.000       0.000       0.000       0.000    
        0.000       0.000       0.000       0.000       0.000       0.000       0.000       0.000       0.000       0.000    
        0.000       0.000       0.000       0.000       0.000       0.000       0.000       0.000       0.000       0.000    
        0.000       0.000       0.000       0.000       0.000       0.000    
 122    2.610       2.610       2.610       0.000       2.610       2.610       2.610       2.610       2.610       2.610    
        2.610       2.610       2.610       2.610       2.610       2.610       2.610       2.610       2.610       2.610    
        2.610       2.610       2.610       2.610       2.610       2.610       2.610       2.610       2.610       2.610    
        2.610       2.610       2.610       2.610       2.610       2.610       2.610       2.610       2.610       2.610    
        2.610       2.610       2.610       0.000       0.000       0.000       0.000       0.000       0.000       0.000    
        0.000       0.000       0.000       0.000       0.000       0.000       0.000       0.000       0.000       0.000    
        0.000       0.000       0.000       0.000       0.000       0.000       0.000       0.000       0.000       0.000    
        0.000       0.000       0.000       0.000       0.000       0.000    
 123    2.610       2.610       0.000       2.610       2.610       2.610       2.610       2.610       2.610       2.610    
        2.610       2.610       2.610       2.610       2.610       2.610       2.610       2.610       2.610       2.610    
        2.610       2.610       2.610       2.610       2.610       2.610       2.610       2.610       2.610       2.610    
        2.610       2.610       2.610       2.610       2.610       2.610       2.610       2.610       2.610       2.610    
        2.610       2.610       2.610       0.000       0.000       0.000       0.000       0.000       0.000       0.000    
        0.000       0.000       0.000       0.000       0.000       0.000       0.000       0.000       0.000       0.000    
        0.000       0.000       0.000       0.000       0.000       0.000       0.000       0.000       0.000       0.000    
        0.000       0.000       0.000       0.000       0.000       0.000    
 124    2.610       2.610       0.000       2.610       2.610       2.610       2.610       2.610       2.610       2.610    
        2.610       2.610       2.610       2.610       2.610       2.610       2.610       2.610       2.610       2.610    
        2.610       2.610       2.610       2.610       2.610       2.610       2.610       2.610       2.610       2.610    
        2.610       2.610       2.610       2.610       2.610       2.610       2.610       2.610       2.610       2.610    
        2.610       2.610       2.610       2.610       0.000       0.000       0.000       0.000       0.000       0.000    
        0.000       0.000       0.000       0.000       0.000       0.000       0.000       0.000       0.000       0.000    
        0.000       0.000       0.000       0.000       0.000       0.000       0.000       0.000       0.000       0.000    
        0.000       0.000       0.000       0.000       0.000       0.000    
 125    2.610       2.610       2.610       2.610       2.610       2.610       2.610       2.610       2.610       2.610    
        2.610       2.610       2.610       2.610       2.610       2.610       2.610       2.610       2.610       2.610    
        2.610       2.610       2.610       2.610       2.610       2.610       2.610       2.610       2.610       2.610    
        2.610       2.610       2.610       2.610       2.610       2.610       2.610       2.610       2.610       2.610    
        2.610       2.610       2.610       2.610       2.610       0.000       0.000       0.000       0.000       0.000    
        0.000       0.000       0.000       0.000       0.000       0.000       0.000       0.000       0.000       0.000    
        0.000       0.000       0.000       0.000       0.000       0.000       0.000       0.000       0.000       0.000    
        0.000       0.000       0.000       0.000       0.000       0.000    
 126    2.610       2.610       2.610       2.610       2.610       2.610       2.610       2.610       2.610       2.610    
        2.610       2.610       2.610       2.610       2.610       2.610       2.610       2.610       2.610       2.610    
        2.610       2.610       2.610       2.610       2.610       2.610       2.610       2.610       2.610       2.610    
        2.610       2.610       2.610       2.610       2.610       2.610       2.610       2.610       2.610       2.610    
        2.610       2.610       2.610       2.610       2.610       0.000       0.000       0.000       0.000       0.000    
        0.000       0.000       0.000       0.000       0.000       0.000       0.000       0.000       0.000       0.000    
        0.000       0.000       0.000       0.000       0.000       0.000       0.000       0.000       0.000       0.000    
        0.000       0.000       0.000       0.000       0.000       0.000    
 127    2.610       2.610       2.610       2.610       2.610       2.610       2.610       2.610       2.610       2.610    
        2.610       2.610       2.610       2.610       2.610       2.610       2.610       2.610       2.610       2.610    
        2.610       2.610       2.610       2.610       2.610       2.610       2.610       2.610       2.610       2.610    
        2.610       2.610       2.610       2.610       2.610       2.610       2.610       2.610       2.610       2.610    
        2.610       2.610       2.610       2.610       2.610       2.610       0.000       0.000       0.000       0.000    
        0.000       0.000       0.000       0.000       0.000       0.000       0.000       0.000       0.000       0.000    
        0.000       0.000       0.000       0.000       0.000       0.000       0.000       0.000       0.000       0.000    
        0.000       0.000       0.000       0.000       0.000       0.000    
 128    2.610       2.610       2.610       2.610       2.610       2.610       2.610       2.610       2.610       2.610    
        2.610       2.610       2.610       2.610       2.610       2.610       2.610       2.610       2.610       2.610    
        2.610       2.610       2.610       2.610       2.610       2.610       2.610       2.610       2.610       2.610    
        2.610       2.610       2.610       2.610       2.610       2.610       2.610       2.610       2.610       2.610    
        2.610       2.610       2.610       2.610       2.610       2.610       2.610       0.000       0.000       0.000    
        0.000       0.000       0.000       0.000       0.000       0.000       0.000       0.000       0.000       0.000    
        0.000       0.000       0.000       0.000       0.000       0.000       0.000       0.000       0.000       0.000    
        0.000       0.000       0.000       0.000       0.000       0.000    
 129    2.610       2.610       2.610       2.610       2.610       2.610       2.610       2.610       2.610       2.610    
        2.610       2.610       2.610       2.610       2.610       2.610       2.610       2.610       2.610       2.610    
        2.610       2.610       2.610       2.610       2.610       2.610       2.610       2.610       2.610       2.610    
        2.610       2.610       2.610       2.610       2.610       2.610       2.610       2.610       2.610       2.610    
        2.610       2.610       2.610       2.610       2.610       2.610       2.610       2.610       0.000       0.000    
        0.000       0.000       0.000       0.000       0.000       0.000       0.000       0.000       0.000       0.000    
        0.000       0.000       0.000       0.000       0.000       0.000       0.000       0.000       0.000       0.000    
        0.000       0.000       0.000       0.000       0.000       0.000    
 130    2.610       2.610       2.610       2.610       2.610       2.610       2.610       2.610       2.610       2.610    
        2.610       2.610       2.610       2.610       2.610       2.610       2.610       2.610       2.610       2.610    
        2.610       2.610       2.610       2.610       2.610       2.610       2.610       2.610       2.610       2.610    
        2.610       2.610       2.610       2.610       2.610       2.610       2.610       2.610       2.610       2.610    
        2.610       2.610       2.610       2.610       2.610       2.610       2.610       2.610       2.610       0.000    
        0.000       0.000       0.000       0.000       0.000       0.000       0.000       0.000       0.000       0.000    
        0.000       0.000       0.000       0.000       0.000       0.000       0.000       0.000       0.000       0.000    
        0.000       0.000       0.000       0.000       0.000       0.000    
 131    2.610       2.610       2.610       2.610       2.610       2.610       2.610       2.610       2.610       2.610    
        2.610       0.000       0.000       0.000       0.000       0.000       0.000       2.610       2.610       2.610    
        2.610       2.610       2.610       2.610       2.610       2.610       2.610       2.610       2.610       2.610    
        2.610       2.610       2.610       2.610       2.610       2.610       2.610       2.610       2.610       2.610    
        0.000       0.000       0.000       0.000       0.000       2.610       2.610       2.610       2.610       0.000    
        0.000       0.000       0.000       0.000       0.000       0.000       0.000       0.000       0.000       0.000    
        0.000       0.000       0.000       0.000       0.000       0.000       0.000       0.000       0.000       0.000    
        0.000       0.000       0.000       0.000       0.000       0.000    

         SPECIFIC STORAGE =  1.000000E-05 FOR LAYER   1

           SPECIFIC YIELD FOR LAYER   1 WILL BE DEFINED BY PARAMETERS
 (PRINT FLAG=  12)

           SPECIFIC YIELD is defined by the following parameters:
 sy01      
 sy02      


                     SPECIFIC YIELD FOR LAYER   1

            1           2           3           4           5           6           7           8           9          10
           11          12          13          14          15          16          17          18          19          20
           21          22          23          24          25          26          27          28          29          30
           31          32          33          34          35          36          37          38          39          40
           41          42          43          44          45          46          47          48          49          50
           51          52          53          54          55          56          57          58          59          60
           61          62          63          64          65          66          67          68          69          70
           71          72          73          74          75          76
 ........................................................................................................................
   1    0.000       0.000       0.000       0.000       0.000       0.000       0.000       0.000       0.000       0.000    
        0.000       0.000       0.000       0.000       0.000       0.000       0.000       0.000       0.000       0.000    
        0.000       0.000       0.000       0.000       0.000       0.000       0.000       0.000       0.000       0.000    
        0.000       0.000       0.000       0.000       0.000       0.000       0.000       0.000       0.000       0.000    
        0.000       0.000       0.000       0.000       0.000       0.000       0.000       0.000       0.000       0.000    
        0.000      0.1000      0.1000       0.000       0.000       0.000       0.000       0.000       0.000       0.000    
        0.000       0.000       0.000       0.000       0.000       0.000       0.000       0.000       0.000       0.000    
        0.000      0.1000      0.1000      0.1000       0.000      0.1000    
   2    0.000       0.000       0.000       0.000       0.000       0.000       0.000       0.000       0.000       0.000    
        0.000       0.000       0.000       0.000       0.000       0.000       0.000       0.000       0.000       0.000    
        0.000       0.000       0.000       0.000       0.000       0.000       0.000       0.000       0.000       0.000    
        0.000       0.000       0.000       0.000       0.000       0.000       0.000       0.000       0.000       0.000    
        0.000       0.000       0.000       0.000       0.000       0.000       0.000       0.000       0.000       0.000    
        0.000      0.1000      0.1000      0.1000       0.000       0.000       0.000       0.000       0.000       0.000    
        0.000       0.000       0.000       0.000       0.000       0.000       0.000      0.1000      0.1000      0.1000    
       0.1000      0.1000      0.1000      0.1000      0.1000      0.1000    
   3    0.000       0.000       0.000       0.000       0.000       0.000       0.000       0.000       0.000       0.000    
        0.000       0.000       0.000       0.000       0.000       0.000       0.000       0.000       0.000       0.000    
        0.000       0.000       0.000       0.000       0.000       0.000       0.000       0.000       0.000       0.000    
        0.000       0.000       0.000       0.000       0.000       0.000       0.000       0.000       0.000       0.000    
        0.000       0.000       0.000       0.000       0.000       0.000       0.000       0.000       0.000       0.000    
        0.000      0.1000      0.1000      0.1000       0.000       0.000       0.000       0.000       0.000       0.000    
        0.000       0.000      0.1000      0.1000      0.1000      0.1000      0.1000      0.1000      0.1000      0.1000    
       0.1000      0.1000      0.1000      0.1000      0.1000      0.1000    
   4    0.000       0.000       0.000       0.000       0.000       0.000       0.000       0.000       0.000       0.000    
        0.000       0.000       0.000       0.000       0.000       0.000       0.000       0.000       0.000       0.000    
        0.000       0.000       0.000       0.000       0.000       0.000       0.000       0.000       0.000       0.000    
        0.000       0.000       0.000       0.000       0.000       0.000       0.000       0.000       0.000       0.000    
        0.000       0.000       0.000       0.000       0.000       0.000       0.000       0.000       0.000       0.000    
       0.1000      0.1000      0.1000      0.1000      0.1000       0.000       0.000      0.1000      0.1000      0.1000    
       0.1000      0.1000      0.1000      0.1000      0.1000      0.1000      0.1000      0.1000      0.1000      0.1000    
       0.1000      0.1000      0.1000      0.1000      0.1000      0.1000    
   5    0.000       0.000       0.000       0.000       0.000       0.000       0.000       0.000       0.000       0.000    
        0.000       0.000       0.000       0.000       0.000       0.000       0.000       0.000       0.000       0.000    
        0.000       0.000       0.000       0.000       0.000       0.000       0.000       0.000       0.000       0.000    
        0.000       0.000       0.000       0.000       0.000       0.000       0.000       0.000       0.000       0.000    
        0.000       0.000       0.000       0.000       0.000       0.000       0.000       0.000       0.000       0.000    
       0.1000      0.1000      0.1000      0.1000      0.1000      0.1000      0.1000      0.1000      0.1000      0.1000    
       0.1000      0.1000      0.1000      0.1000      0.1000      0.1000      0.1000      0.1000      0.1000      0.1000    
       0.1000      0.1000      0.1000      0.1000      0.1000       0.000    
   6    0.000       0.000       0.000       0.000       0.000       0.000       0.000       0.000       0.000       0.000    
        0.000       0.000       0.000       0.000       0.000       0.000       0.000       0.000       0.000       0.000    
        0.000       0.000       0.000       0.000       0.000       0.000       0.000       0.000       0.000       0.000    
        0.000       0.000       0.000       0.000       0.000       0.000       0.000       0.000       0.000       0.000    
        0.000       0.000       0.000       0.000       0.000       0.000       0.000       0.000       0.000      0.1000    
       0.1000      0.1000      0.1000      0.1000      0.1000      0.1000      0.1000      0.1000      0.1000      0.1000    
       0.1000      0.1000      0.1000      0.1000      0.1000      0.1000      0.1000      0.1000      0.1000      0.1000    
       0.1000      0.1000      0.1000      0.1000      0.1000       0.000    
   7    0.000       0.000       0.000       0.000       0.000       0.000       0.000       0.000       0.000       0.000    
        0.000       0.000       0.000       0.000       0.000       0.000       0.000       0.000       0.000       0.000    
        0.000       0.000       0.000       0.000       0.000       0.000       0.000       0.000       0.000       0.000    
        0.000       0.000       0.000       0.000       0.000       0.000       0.000       0.000       0.000       0.000    
        0.000       0.000       0.000       0.000       0.000       0.000       0.000       0.000       0.000      0.1000    
       0.1000      0.1000      0.1000      0.1000      0.1000      0.1000      0.1000      0.1000      0.1000      0.1000    
       0.1000      0.1000      0.1000      0.1000      0.1000      0.1000      0.1000      0.1000      0.1000      0.1000    
       0.1000      0.1000      0.1000      0.1000      0.1000       0.000    
   8    0.000       0.000       0.000       0.000       0.000       0.000       0.000       0.000       0.000       0.000    
        0.000       0.000       0.000       0.000       0.000       0.000       0.000       0.000       0.000       0.000    
        0.000       0.000       0.000       0.000       0.000       0.000       0.000       0.000       0.000       0.000    
        0.000       0.000       0.000       0.000       0.000       0.000       0.000       0.000       0.000       0.000    
        0.000       0.000       0.000       0.000       0.000       0.000       0.000       0.000      0.1000      0.1000    
       0.1000      0.1000      0.1000      0.1000      0.1000      0.1000      0.1000      0.1000      0.1000      0.1000    
       0.1000      0.1000      0.1000      0.1000      0.1000      0.1000      0.1000      0.1000      0.1000      0.1000    
       0.1000      0.1000      0.1000      0.1000      0.1000      0.1000    
   9    0.000       0.000       0.000       0.000       0.000       0.000       0.000       0.000       0.000       0.000    
        0.000       0.000       0.000       0.000       0.000       0.000       0.000       0.000       0.000       0.000    
        0.000       0.000       0.000       0.000       0.000       0.000       0.000       0.000       0.000       0.000    
        0.000       0.000       0.000       0.000       0.000       0.000       0.000       0.000       0.000       0.000    
        0.000       0.000       0.000       0.000       0.000       0.000       0.000      0.1000      0.1000      0.1000    
       0.1000      0.1000      0.1000      0.1000      0.1000      0.1000      0.1000      0.1000      0.1000      0.1000    
       0.1000      0.1000      0.1000      0.1000      0.1000      0.1000      0.1000      0.1000      0.1000      0.1000    
       0.1000      0.1000      0.1000      0.1000      0.1000      0.1000    
  10    0.000       0.000       0.000       0.000       0.000       0.000       0.000       0.000       0.000       0.000    
        0.000       0.000       0.000       0.000       0.000       0.000       0.000       0.000       0.000       0.000    
        0.000       0.000       0.000       0.000       0.000       0.000       0.000       0.000       0.000       0.000    
        0.000       0.000       0.000       0.000       0.000       0.000       0.000       0.000       0.000       0.000    
        0.000       0.000       0.000       0.000       0.000       0.000      0.1000      0.1000      0.1000      0.1000    
       0.1000      0.1000      0.1000      0.1000      0.1000      0.1000      0.1000      0.1000      0.1000      0.1000    
       0.1000      0.1000      0.1000      0.1000      0.1000      0.1000      0.1000      0.1000      0.1000      0.1000    
       0.1000      0.1000      0.1000      0.1000      0.1000      0.1000    
  11    0.000       0.000       0.000       0.000       0.000       0.000       0.000       0.000       0.000       0.000    
        0.000       0.000       0.000       0.000       0.000       0.000       0.000       0.000       0.000       0.000    
        0.000       0.000       0.000       0.000       0.000       0.000       0.000       0.000       0.000       0.000    
        0.000       0.000       0.000       0.000       0.000       0.000       0.000       0.000       0.000       0.000    
        0.000       0.000       0.000       0.000       0.000      0.1000      0.1000      0.1000      0.1000      0.1000    
       0.1000      0.1000      0.1000      0.1000      0.1000      0.1000      0.1000      0.1000      0.1000      0.1000    
       0.1000      0.1000      0.1000      0.1000      0.1000      0.1000      0.1000      0.1000      0.1000      0.1000    
       0.1000      0.1000      0.1000      0.1000      0.1000       0.000    
  12    0.000       0.000       0.000       0.000       0.000       0.000       0.000       0.000       0.000       0.000    
        0.000       0.000       0.000       0.000       0.000       0.000       0.000       0.000       0.000       0.000    
        0.000       0.000       0.000       0.000       0.000       0.000       0.000       0.000       0.000       0.000    
        0.000       0.000       0.000       0.000       0.000       0.000       0.000       0.000       0.000       0.000    
        0.000       0.000       0.000       0.000      0.1000      0.1000      0.1000      0.1000      0.1000      0.1000    
       0.1000      0.1000      0.1000      0.1000      0.1000      0.1000      0.1000      0.1000      0.1000      0.1000    
       0.1000      0.1000      0.1000      0.1000      0.1000      0.1000      0.1000      0.1000      0.1000      0.1000    
       0.1000      0.1000      0.1000      0.1000      0.1000       0.000    
  13    0.000       0.000       0.000       0.000       0.000       0.000       0.000       0.000       0.000       0.000    
        0.000       0.000       0.000       0.000       0.000       0.000       0.000       0.000       0.000       0.000    
        0.000       0.000       0.000       0.000       0.000       0.000       0.000       0.000       0.000       0.000    
        0.000       0.000       0.000       0.000       0.000       0.000       0.000       0.000       0.000       0.000    
        0.000       0.000       0.000      0.1000      0.1000      0.1000      0.1000      0.1000      0.1000      0.1000    
       0.1000      0.1000      0.1000      0.1000      0.1000      0.1000      0.1000      0.1000      0.1000      0.1000    
       0.1000      0.1000      0.1000      0.1000      0.1000      0.1000      0.1000      0.1000      0.1000      0.1000    
       0.1000      0.1000      0.1000      0.1000      0.1000       0.000    
  14    0.000       0.000       0.000       0.000       0.000       0.000       0.000       0.000       0.000       0.000    
        0.000       0.000       0.000       0.000       0.000       0.000       0.000       0.000       0.000       0.000    
        0.000       0.000       0.000       0.000       0.000       0.000       0.000       0.000       0.000       0.000    
        0.000       0.000       0.000       0.000       0.000       0.000       0.000       0.000       0.000       0.000    
        0.000       0.000      0.1000      0.1000      0.1000      0.1000      0.1000      0.1000      0.1000      0.1000    
       0.1000      0.1000      0.1000      0.1000      0.1000      0.1000      0.1000      0.1000      0.1000      0.1000    
       0.1000      0.1000      0.1000      0.1000      0.1000      0.1000      0.1000      0.1000      0.1000      0.1000    
       0.1000      0.1000      0.1000      0.1000      0.1000      0.1000    
  15    0.000       0.000       0.000       0.000       0.000       0.000       0.000       0.000       0.000       0.000    
        0.000       0.000       0.000       0.000       0.000       0.000       0.000       0.000       0.000       0.000    
        0.000       0.000       0.000       0.000       0.000       0.000       0.000       0.000       0.000       0.000    
        0.000       0.000       0.000       0.000       0.000       0.000       0.000       0.000       0.000       0.000    
        0.000      0.1000      0.1000      0.1000      0.1000      0.1000      0.1000      0.1000      0.1000      0.1000    
       0.1000      0.1000      0.1000      0.1000      0.1000      0.1000      0.1000      0.1000      0.1000      0.1000    
       0.1000      0.1000      0.1000      0.1000      0.1000      0.1000      0.1000      0.1000      0.1000      0.1000    
       0.1000      0.1000      0.1000      0.1000      0.1000      0.1000    
  16    0.000       0.000       0.000       0.000       0.000       0.000       0.000       0.000       0.000       0.000    
        0.000       0.000       0.000       0.000       0.000       0.000       0.000       0.000       0.000       0.000    
        0.000       0.000       0.000       0.000       0.000       0.000       0.000       0.000       0.000       0.000    
        0.000       0.000       0.000       0.000       0.000       0.000       0.000       0.000       0.000       0.000    
       0.1000      0.1000      0.1000      0.1000      0.1000      0.1000      0.1000      0.1000      0.1000      0.1000    
       0.1000      0.1000      0.1000      0.1000      0.1000      0.1000      0.1000      0.1000      0.1000      0.1000    
       0.1000      0.1000      0.1000      0.1000      0.1000      0.1000      0.1000      0.1000      0.1000      0.1000    
       0.1000      0.1000      0.1000      0.1000      0.1000       0.000    
  17    0.000       0.000       0.000       0.000       0.000       0.000       0.000       0.000       0.000       0.000    
        0.000       0.000       0.000       0.000       0.000       0.000       0.000       0.000       0.000       0.000    
        0.000       0.000       0.000       0.000       0.000       0.000       0.000       0.000       0.000       0.000    
        0.000       0.000       0.000       0.000       0.000       0.000       0.000       0.000       0.000      0.1000    
       0.1000      0.1000      0.1000      0.1000      0.1000      0.1000      0.1000      0.1000      0.1000      0.1000    
       0.1000      0.1000      0.1000      0.1000      0.1000      0.1000      0.1000      0.1000      0.1000      0.1000    
       0.1000      0.1000      0.1000      0.1000      0.1000      0.1000      0.1000      0.1000      0.1000      0.1000    
       0.1000      0.1000      0.1000      0.1000      0.1000      0.1000    
  18    0.000       0.000       0.000       0.000       0.000       0.000       0.000       0.000       0.000       0.000    
        0.000       0.000       0.000       0.000       0.000       0.000       0.000       0.000       0.000       0.000    
        0.000       0.000       0.000       0.000       0.000       0.000       0.000       0.000       0.000       0.000    
        0.000       0.000       0.000       0.000       0.000       0.000       0.000       0.000      0.1000      0.1000    
       0.1000      0.1000      0.1000      0.1000      0.1000      0.1000      0.1000      0.1000      0.1000      0.1000    
       0.1000      0.1000      0.1000      0.1000      0.1000      0.1000      0.1000      0.1000      0.1000      0.1000    
       0.1000      0.1000      0.1000      0.1000      0.1000      0.1000      0.1000      0.1000      0.1000      0.1000    
       0.1000      0.1000      0.1000      0.1000      0.1000      0.1000    
  19    0.000       0.000       0.000       0.000       0.000       0.000       0.000       0.000       0.000       0.000    
        0.000       0.000       0.000       0.000       0.000       0.000       0.000       0.000       0.000       0.000    
        0.000       0.000       0.000       0.000       0.000       0.000       0.000       0.000       0.000       0.000    
        0.000       0.000       0.000       0.000       0.000       0.000       0.000      0.1000      0.1000      0.1000    
       0.1000      0.1000      0.1000      0.1000      0.1000      0.1000      0.1000      0.1000      0.1000      0.1000    
       0.1000      0.1000      0.1000      0.1000      0.1000      0.1000      0.1000      0.1000      0.1000      0.1000    
       0.1000      0.1000      0.1000      0.1000      0.1000      0.1000      0.1000      0.1000      0.1000      0.1000    
       0.1000      0.1000      0.1000      0.1000      0.1000      0.1000    
  20    0.000       0.000       0.000       0.000       0.000       0.000       0.000       0.000       0.000       0.000    
        0.000       0.000       0.000       0.000       0.000       0.000       0.000       0.000       0.000       0.000    
        0.000       0.000       0.000       0.000       0.000       0.000       0.000       0.000       0.000       0.000    
        0.000       0.000       0.000       0.000       0.000       0.000      0.1000      0.1000      0.1000      0.1000    
       0.1000      0.1000      0.1000      0.1000      0.1000      0.1000      0.1000      0.1000      0.1000      0.1000    
       0.1000      0.1000      0.1000      0.1000      0.1000      0.1000      0.1000      0.1000      0.1000      0.1000    
       0.1000      0.1000      0.1000      0.1000      0.1000      0.1000      0.1000      0.1000      0.1000      0.1000    
       0.1000      0.1000      0.1000      0.1000      0.1000      0.1000    
  21   0.1000      0.1000       0.000       0.000       0.000       0.000       0.000       0.000       0.000       0.000    
        0.000       0.000       0.000       0.000       0.000       0.000       0.000       0.000       0.000       0.000    
        0.000       0.000       0.000       0.000       0.000       0.000       0.000       0.000       0.000       0.000    
        0.000       0.000       0.000       0.000       0.000      0.1000      0.1000      0.1000      0.1000      0.1000    
       0.1000      0.1000      0.1000      0.1000      0.1000      0.1000      0.1000      0.1000      0.1000      0.1000    
       0.1000      0.1000      0.1000      0.1000      0.1000      0.1000      0.1000      0.1000      0.1000      0.1000    
       0.1000      0.1000      0.1000      0.1000      0.1000      0.1000      0.1000      0.1000      0.1000      0.1000    
       0.1000      0.1000      0.1000      0.1000      0.1000      0.1000    
  22   0.1000      0.1000      0.1000      0.1000      0.1000       0.000       0.000       0.000       0.000       0.000    
        0.000       0.000       0.000       0.000       0.000       0.000       0.000       0.000       0.000       0.000    
        0.000       0.000       0.000       0.000       0.000       0.000       0.000       0.000       0.000       0.000    
        0.000       0.000      0.1000      0.1000      0.1000      0.1000      0.1000      0.1000      0.1000      0.1000    
       0.1000      0.1000      0.1000      0.1000      0.1000      0.1000      0.1000      0.1000      0.1000      0.1000    
       0.1000      0.1000      0.1000      0.1000      0.1000      0.1000      0.1000      0.1000      0.1000      0.1000    
       0.1000      0.1000      0.1000      0.1000      0.1000      0.1000      0.1000      0.1000      0.1000      0.1000    
       0.1000      0.1000      0.1000      0.1000      0.1000      0.1000    
  23   0.1000      0.1000      0.1000      0.1000      0.1000      0.1000      0.1000       0.000       0.000       0.000    
        0.000       0.000       0.000       0.000       0.000       0.000       0.000       0.000       0.000       0.000    
        0.000       0.000       0.000       0.000       0.000       0.000       0.000       0.000       0.000       0.000    
        0.000       0.000      0.1000      0.1000      0.1000      0.1000      0.1000      0.1000      0.1000      0.1000    
       0.1000      0.1000      0.1000      0.1000      0.1000      0.1000      0.1000      0.1000      0.1000      0.1000    
       0.1000      0.1000      0.1000      0.1000      0.1000      0.1000      0.1000      0.1000      0.1000      0.1000    
       0.1000      0.1000      0.1000      0.1000      0.1000      0.1000      0.1000      0.1000      0.1000      0.1000    
       0.1000      0.1000      0.1000      0.1000      0.1000      0.1000    
  24   0.1000      0.1000      0.1000      0.1000      0.1000      0.1000      0.1000      0.1000      0.1000      0.1000    
        0.000       0.000       0.000       0.000       0.000       0.000       0.000       0.000       0.000       0.000    
        0.000       0.000       0.000       0.000       0.000       0.000       0.000       0.000       0.000       0.000    
        0.000       0.000      0.1000      0.1000      0.1000      0.1000      0.1000      0.1000      0.1000      0.1000    
       0.1000      0.1000      0.1000      0.1000      0.1000      0.1000      0.1000      0.1000      0.1000      0.1000    
       0.1000      0.1000      0.1000      0.1000      0.1000      0.1000      0.1000      0.1000      0.1000      0.1000    
       0.1000      0.1000      0.1000      0.1000      0.1000      0.1000      0.1000      0.1000      0.1000      0.1000    
       0.1000      0.1000      0.1000      0.1000      0.1000      0.1000    
  25   0.1000      0.1000      0.1000      0.1000      0.1000      0.1000      0.1000      0.1000      0.1000      0.1000    
       0.1000      0.1000      0.1000       0.000       0.000       0.000       0.000       0.000       0.000       0.000    
        0.000       0.000       0.000       0.000       0.000       0.000       0.000       0.000       0.000      0.1000    
       0.1000      0.1000      0.1000      0.1000      0.1000      0.1000      0.1000      0.1000      0.1000      0.1000    
       0.1000      0.1000      0.1000      0.1000      0.1000      0.1000      0.1000      0.1000      0.1000      0.1000    
       0.1000      0.1000      0.1000      0.1000      0.1000      0.1000      0.1000      0.1000      0.1000      0.1000    
       0.1000      0.1000      0.1000      0.1000      0.1000      0.1000      0.1000      0.1000      0.1000      0.1000    
       0.1000      0.1000      0.1000      0.1000      0.1000      0.1000    
  26   0.1000      0.1000      0.1000      0.1000      0.1000      0.1000      0.1000      0.1000      0.1000      0.1000    
       0.1000      0.1000      0.1000      0.1000      0.1000      0.1000      0.1000       0.000       0.000       0.000    
        0.000       0.000       0.000       0.000       0.000       0.000      0.1000      0.1000      0.1000      0.1000    
       0.1000      0.1000      0.1000      0.1000      0.1000      0.1000      0.1000      0.1000      0.1000      0.1000    
       0.1000      0.1000      0.1000      0.1000      0.1000      0.1000      0.1000      0.1000      0.1000      0.1000    
       0.1000      0.1000      0.1000      0.1000      0.1000      0.1000      0.1000      0.1000      0.1000      0.1000    
       0.1000      0.1000      0.1000      0.1000      0.1000      0.1000      0.1000      0.1000      0.1000      0.1000    
       0.1000      0.1000      0.1000      0.1000      0.1000      0.1000    
  27   0.1000      0.1000      0.1000      0.1000      0.1000      0.1000      0.1000      0.1000      0.1000      0.1000    
       0.1000      0.1000      0.1000      0.1000      0.1000      0.1000      0.1000      0.1000      0.1000      0.1000    
       0.1000      0.1000      0.1000      0.1000      0.1000      0.1000      0.1000      0.1000      0.1000      0.1000    
       0.1000      0.1000      0.1000      0.1000      0.1000      0.1000      0.1000      0.1000      0.1000      0.1000    
       0.1000      0.1000      0.1000      0.1000      0.1000      0.1000      0.1000      0.1000      0.1000      0.1000    
       0.1000      0.1000      0.1000      0.1000      0.1000      0.1000      0.1000      0.1000      0.1000      0.1000    
       0.1000      0.1000      0.1000      0.1000      0.1000      0.1000      0.1000      0.1000      0.1000      0.1000    
       0.1000      0.1000      0.1000      0.1000      0.1000       0.000    
  28   0.1000      0.1000      0.1000      0.1000      0.1000      0.1000      0.1000      0.1000      0.1000      0.1000    
       0.1000      0.1000      0.1000      0.1000      0.1000      0.1000      0.1000      0.1000      0.1000      0.1000    
       0.1000      0.1000      0.1000      0.1000      0.1000      0.1000      0.1000      0.1000      0.1000      0.1000    
       0.1000      0.1000      0.1000      0.1000      0.1000      0.1000      0.1000      0.1000      0.1000      0.1000    
       0.1000      0.1000      0.1000      0.1000      0.1000      0.1000      0.1000      0.1000      0.1000      0.1000    
       0.1000      0.1000      0.1000      0.1000      0.1000      0.1000      0.1000      0.1000      0.1000      0.1000    
       0.1000      0.1000      0.1000      0.1000      0.1000      0.1000      0.1000      0.1000      0.1000      0.1000    
       0.1000      0.1000      0.1000      0.1000      0.1000       0.000    
  29   0.1000      0.1000      0.1000      0.1000      0.1000      0.1000      0.1000      0.1000      0.1000      0.1000    
       0.1000      0.1000      0.1000      0.1000      0.1000      0.1000      0.1000      0.1000      0.1000      0.1000    
       0.1000      0.1000      0.1000      0.1000      0.1000      0.1000      0.1000      0.1000      0.1000      0.1000    
       0.1000      0.1000      0.1000      0.1000      0.1000      0.1000      0.1000      0.1000      0.1000      0.1000    
       0.1000      0.1000      0.1000      0.1000      0.1000      0.1000      0.1000      0.1000      0.1000      0.1000    
       0.1000      0.1000      0.1000      0.1000      0.1000      0.1000      0.1000      0.1000      0.1000      0.1000    
       0.1000      0.1000      0.1000      0.1000      0.1000      0.1000      0.1000      0.1000      0.1000      0.1000    
       0.1000      0.1000      0.1000      0.1000      0.1000       0.000    
  30   0.1000      0.1000      0.1000      0.1000      0.1000      0.1000      0.1000      0.1000      0.1000      0.1000    
       0.1000      0.1000      0.1000      0.1000      0.1000      0.1000      0.1000      0.1000      0.1000      0.1000    
       0.1000      0.1000      0.1000      0.1000      0.1000      0.1000      0.1000      0.1000      0.1000      0.1000    
       0.1000      0.1000      0.1000      0.1000      0.1000      0.1000      0.1000      0.1000      0.1000      0.1000    
       0.1000      0.1000      0.1000      0.1000      0.1000      0.1000      0.1000      0.1000      0.1000      0.1000    
       0.1000      0.1000      0.1000      0.1000      0.1000      0.1000      0.1000      0.1000      0.1000      0.1000    
       0.1000      0.1000      0.1000      0.1000      0.1000      0.1000      0.1000      0.1000      0.1000      0.1000    
       0.1000      0.1000      0.1000      0.1000      0.1000       0.000    
  31   0.1000      0.1000      0.1000      0.1000      0.1000      0.1000      0.1000      0.1000      0.1000      0.1000    
       0.1000      0.1000      0.1000      0.1000      0.1000      0.1000      0.1000      0.1000      0.1000      0.1000    
       0.1000      0.1000      0.1000      0.1000      0.1000      0.1000      0.1000      0.1000      0.1000      0.1000    
       0.1000      0.1000      0.1000      0.1000      0.1000      0.1000      0.1000      0.1000      0.1000      0.1000    
       0.1000      0.1000      0.1000      0.1000      0.1000      0.1000      0.1000      0.1000      0.1000      0.1000    
       0.1000      0.1000      0.1000      0.1000      0.1000      0.1000      0.1000      0.1000      0.1000      0.1000    
       0.1000      0.1000      0.1000      0.1000      0.1000      0.1000      0.1000      0.1000      0.1000      0.1000    
       0.1000      0.1000      0.1000      0.1000       0.000       0.000    
  32    0.000      0.1000      0.1000      0.1000      0.1000      0.1000      0.1000      0.1000      0.1000      0.1000    
       0.1000      0.1000      0.1000      0.1000      0.1000      0.1000      0.1000      0.1000      0.1000      0.1000    
       0.1000      0.1000      0.1000      0.1000      0.1000      0.1000      0.1000      0.1000      0.1000      0.1000    
       0.1000      0.1000      0.1000      0.1000      0.1000      0.1000      0.1000      0.1000      0.1000      0.1000    
       0.1000      0.1000      0.1000      0.1000      0.1000      0.1000      0.1000      0.1000      0.1000      0.1000    
       0.1000      0.1000      0.1000      0.1000      0.1000      0.1000      0.1000      0.1000      0.1000      0.1000    
       0.1000      0.1000      0.1000      0.1000      0.1000      0.1000      0.1000      0.1000      0.1000      0.1000    
       0.1000      0.1000      0.1000      0.1000       0.000       0.000    
  33    0.000       0.000       0.000      0.1000      0.1000      0.1000      0.1000      0.1000      0.1000      0.1000    
       0.1000      0.1000      0.1000      0.1000      0.1000      0.1000      0.1000      0.1000      0.1000      0.1000    
       0.1000      0.1000      0.1000      0.1000      0.1000      0.1000      0.1000      0.1000      0.1000      0.1000    
       0.1000      0.1000      0.1000      0.1000      0.1000      0.1000      0.1000      0.1000      0.1000      0.1000    
       0.1000      0.1000      0.1000      0.1000      0.1000      0.1000      0.1000      0.1000      0.1000      0.1000    
       0.1000      0.1000      0.1000      0.1000      0.1000      0.1000      0.1000      0.1000      0.1000      0.1000    
       0.1000      0.1000      0.1000      0.1000      0.1000      0.1000      0.1000      0.1000      0.1000      0.1000    
       0.1000      0.1000      0.1000       0.000       0.000       0.000    
  34    0.000       0.000       0.000       0.000       0.000      0.1000      0.1000      0.1000      0.1000      0.1000    
       0.1000      0.1000      0.1000      0.1000      0.1000      0.1000      0.1000      0.1000      0.1000      0.1000    
       0.1000      0.1000      0.1000      0.1000      0.1000      0.1000      0.1000      0.1000      0.1000      0.1000    
       0.1000      0.1000      0.1000      0.1000      0.1000      0.1000      0.1000      0.1000      0.1000      0.1000    
       0.1000      0.1000      0.1000      0.1000      0.1000      0.1000      0.1000      0.1000      0.1000      0.1000    
       0.1000      0.1000      0.1000      0.1000      0.1000      0.1000      0.1000      0.1000      0.1000      0.1000    
       0.1000      0.1000      0.1000      0.1000      0.1000      0.1000      0.1000      0.1000      0.1000      0.1000    
       0.1000      0.1000      0.1000       0.000       0.000       0.000    
  35    0.000       0.000       0.000       0.000       0.000       0.000      0.1000      0.1000      0.1000      0.1000    
       0.1000      0.1000      0.1000      0.1000      0.1000      0.1000      0.1000      0.1000      0.1000      0.1000    
       0.1000      0.1000      0.1000      0.1000      0.1000      0.1000      0.1000      0.1000      0.1000      0.1000    
       0.1000      0.1000      0.1000      0.1000      0.1000      0.1000      0.1000      0.1000      0.1000      0.1000    
       0.1000      0.1000      0.1000      0.1000      0.1000      0.1000      0.1000      0.1000      0.1000      0.1000    
       0.1000      0.1000      0.1000      0.1000      0.1000      0.1000      0.1000      0.1000      0.1000      0.1000    
       0.1000      0.1000      0.1000      0.1000      0.1000      0.1000      0.1000      0.1000      0.1000      0.1000    
       0.1000      0.1000       0.000       0.000       0.000       0.000    
  36    0.000       0.000       0.000       0.000       0.000       0.000       0.000       0.000      0.1000      0.1000    
       0.1000      0.1000      0.1000      0.1000      0.1000      0.1000      0.1000      0.1000      0.1000      0.1000    
       0.1000      0.1000      0.1000      0.1000      0.1000      0.1000      0.1000      0.1000      0.1000      0.1000    
       0.1000      0.1000      0.1000      0.1000      0.1000      0.1000      0.1000      0.1000      0.1000      0.1000    
       0.1000      0.1000      0.1000      0.1000      0.1000      0.1000      0.1000      0.1000      0.1000      0.1000    
       0.1000      0.1000      0.1000      0.1000      0.1000      0.1000      0.1000      0.1000      0.1000      0.1000    
       0.1000      0.1000      0.1000      0.1000      0.1000      0.1000      0.1000      0.1000      0.1000      0.1000    
       0.1000      0.1000       0.000       0.000       0.000       0.000    
  37   0.1000      0.1000      0.1000       0.000       0.000       0.000       0.000       0.000       0.000       0.000    
       0.1000      0.1000      0.1000      0.1000      0.1000      0.1000      0.1000      0.1000      0.1000      0.1000    
       0.1000      0.1000      0.1000      0.1000      0.1000      0.1000      0.1000      0.1000      0.1000      0.1000    
       0.1000      0.1000      0.1000      0.1000      0.1000      0.1000      0.1000      0.1000      0.1000      0.1000    
       0.1000      0.1000      0.1000      0.1000      0.1000      0.1000      0.1000      0.1000      0.1000      0.1000    
       0.1000      0.1000      0.1000      0.1000      0.1000      0.1000      0.1000      0.1000      0.1000      0.1000    
       0.1000      0.1000      0.1000      0.1000      0.1000      0.1000      0.1000      0.1000      0.1000      0.1000    
       0.1000      0.1000       0.000       0.000       0.000       0.000    
  38   0.1000      0.1000      0.1000      0.1000      0.1000      0.1000      0.1000       0.000       0.000       0.000    
        0.000      0.1000      0.1000      0.1000      0.1000      0.1000      0.1000      0.1000      0.1000      0.1000    
       0.1000      0.1000      0.1000      0.1000      0.1000      0.1000      0.1000      0.1000      0.1000      0.1000    
       0.1000      0.1000      0.1000      0.1000      0.1000      0.1000      0.1000      0.1000      0.1000      0.1000    
       0.1000      0.1000      0.1000      0.1000      0.1000      0.1000      0.1000      0.1000      0.1000      0.1000    
       0.1000      0.1000      0.1000      0.1000      0.1000      0.1000      0.1000      0.1000      0.1000      0.1000    
       0.1000      0.1000      0.1000      0.1000      0.1000      0.1000      0.1000      0.1000      0.1000       0.000    
       0.1000      0.1000       0.000       0.000       0.000       0.000    
  39   0.1000      0.1000      0.1000      0.1000      0.1000      0.1000      0.1000      0.1000      0.1000      0.1000    
       0.1000       0.000       0.000      0.1000      0.1000      0.1000      0.1000      0.1000      0.1000      0.1000    
       0.1000      0.1000      0.1000      0.1000      0.1000      0.1000      0.1000      0.1000      0.1000      0.1000    
       0.1000      0.1000      0.1000      0.1000      0.1000      0.1000      0.1000      0.1000      0.1000      0.1000    
       0.1000      0.1000      0.1000      0.1000      0.1000      0.1000      0.1000      0.1000      0.1000      0.1000    
       0.1000      0.1000      0.1000      0.1000      0.1000      0.1000      0.1000      0.1000      0.1000      0.1000    
       0.1000      0.1000      0.1000      0.1000      0.1000      0.1000      0.1000      0.1000      0.1000      0.1000    
       0.1000       0.000       0.000       0.000       0.000       0.000    
  40   0.1000      0.1000      0.1000      0.1000      0.1000      0.1000      0.1000      0.1000      0.1000      0.1000    
       0.1000      0.1000      0.1000      0.1000      0.1000      0.1000      0.1000      0.1000      0.1000      0.1000    
       0.1000      0.1000      0.1000      0.1000      0.1000      0.1000      0.1000      0.1000      0.1000      0.1000    
       0.1000      0.1000      0.1000      0.1000      0.1000      0.1000      0.1000      0.1000      0.1000      0.1000    
       0.1000      0.1000      0.1000      0.1000      0.1000      0.1000      0.1000      0.1000      0.1000      0.1000    
       0.1000      0.1000      0.1000      0.1000      0.1000      0.1000      0.1000      0.1000      0.1000      0.1000    
       0.1000      0.1000      0.1000      0.1000      0.1000      0.1000      0.1000      0.1000      0.1000      0.1000    
       0.1000       0.000       0.000       0.000       0.000       0.000    
  41   0.1000      0.1000      0.1000      0.1000      0.1000      0.1000      0.1000      0.1000      0.1000      0.1000    
       0.1000      0.1000      0.1000      0.1000      0.1000      0.1000      0.1000      0.1000      0.1000      0.1000    
       0.1000      0.1000      0.1000      0.1000      0.1000      0.1000      0.1000      0.1000      0.1000      0.1000    
       0.1000      0.1000      0.1000      0.1000      0.1000      0.1000      0.1000      0.1000      0.1000      0.1000    
       0.1000      0.1000      0.1000      0.1000      0.1000      0.1000      0.1000      0.1000      0.1000      0.1000    
       0.1000      0.1000      0.1000      0.1000      0.1000      0.1000      0.1000      0.1000      0.1000      0.1000    
       0.1000      0.1000      0.1000      0.1000      0.1000      0.1000      0.1000      0.1000      0.1000      0.1000    
       0.1000      0.1000       0.000       0.000       0.000       0.000    
  42   0.1000      0.1000      0.1000      0.1000      0.1000      0.1000      0.1000      0.1000      0.1000      0.1000    
       0.1000      0.1000      0.1000      0.1000      0.1000      0.1000      0.1000      0.1000      0.1000      0.1000    
       0.1000      0.1000      0.1000      0.1000      0.1000      0.1000      0.1000      0.1000      0.1000      0.1000    
       0.1000      0.1000      0.1000      0.1000      0.1000      0.1000      0.1000      0.1000      0.1000      0.1000    
       0.1000      0.1000      0.1000      0.1000      0.1000      0.1000      0.1000      0.1000      0.1000      0.1000    
       0.1000      0.1000      0.1000      0.1000      0.1000      0.1000      0.1000      0.1000      0.1000      0.1000    
       0.1000      0.1000      0.1000      0.1000      0.1000      0.1000      0.1000      0.1000      0.1000      0.1000    
       0.1000      0.1000       0.000       0.000       0.000       0.000    
  43   0.1000      0.1000      0.1000      0.1000      0.1000      0.1000      0.1000      0.1000      0.1000      0.1000    
       0.1000      0.1000      0.1000      0.1000      0.1000      0.1000      0.1000      0.1000      0.1000      0.1000    
       0.1000      0.1000      0.1000      0.1000      0.1000      0.1000      0.1000      0.1000      0.1000      0.1000    
       0.1000      0.1000      0.1000      0.1000      0.1000      0.1000      0.1000      0.1000      0.1000      0.1000    
       0.1000      0.1000      0.1000      0.1000      0.1000      0.1000      0.1000      0.1000      0.1000      0.1000    
       0.1000      0.1000      0.1000      0.1000      0.1000      0.1000      0.1000      0.1000      0.1000      0.1000    
       0.1000      0.1000      0.1000      0.1000      0.1000      0.1000      0.1000      0.1000      0.1000      0.1000    
       0.1000      0.1000      0.1000       0.000       0.000       0.000    
  44   0.1000      0.1000      0.1000      0.1000      0.1000      0.1000      0.1000      0.1000      0.1000      0.1000    
       0.1000      0.1000      0.1000      0.1000      0.1000      0.1000      0.1000      0.1000      0.1000      0.1000    
       0.1000      0.1000      0.1000      0.1000      0.1000      0.1000      0.1000      0.1000      0.1000      0.1000    
       0.1000      0.1000      0.1000      0.1000      0.1000      0.1000      0.1000      0.1000      0.1000      0.1000    
       0.1000      0.1000      0.1000      0.1000      0.1000      0.1000      0.1000      0.1000      0.1000      0.1000    
       0.1000      0.1000      0.1000      0.1000      0.1000      0.1000      0.1000      0.1000      0.1000      0.1000    
       0.1000      0.1000      0.1000      0.1000      0.1000      0.1000      0.1000      0.1000      0.1000      0.1000    
       0.1000      0.1000      0.1000      0.1000       0.000       0.000    
  45   0.1000      0.1000      0.1000      0.1000      0.1000      0.1000      0.1000      0.1000      0.1000      0.1000    
       0.1000      0.1000      0.1000      0.1000      0.1000      0.1000      0.1000      0.1000      0.1000      0.1000    
       0.1000      0.1000      0.1000      0.1000      0.1000      0.1000      0.1000      0.1000      0.1000      0.1000    
       0.1000      0.1000      0.1000      0.1000      0.1000      0.1000      0.1000      0.1000      0.1000      0.1000    
       0.1000      0.1000      0.1000      0.1000      0.1000      0.1000      0.1000      0.1000      0.1000      0.1000    
       0.1000      0.1000      0.1000      0.1000      0.1000      0.1000      0.1000      0.1000      0.1000      0.1000    
       0.1000      0.1000      0.1000      0.1000      0.1000      0.1000      0.1000      0.1000      0.1000      0.1000    
       0.1000      0.1000      0.1000      0.1000      0.1000       0.000    
  46   0.1000      0.1000      0.1000      0.1000      0.1000      0.1000      0.1000      0.1000      0.1000      0.1000    
       0.1000      0.1000      0.1000      0.1000      0.1000      0.1000      0.1000      0.1000      0.1000      0.1000    
       0.1000      0.1000      0.1000      0.1000      0.1000      0.1000      0.1000      0.1000      0.1000      0.1000    
       0.1000      0.1000      0.1000      0.1000      0.1000      0.1000      0.1000      0.1000      0.1000      0.1000    
       0.1000      0.1000      0.1000      0.1000      0.1000      0.1000      0.1000      0.1000      0.1000      0.1000    
       0.1000      0.1000      0.1000      0.1000      0.1000      0.1000      0.1000      0.1000      0.1000      0.1000    
       0.1000      0.1000      0.1000      0.1000      0.1000      0.1000      0.1000      0.1000      0.1000      0.1000    
       0.1000      0.1000      0.1000      0.1000      0.1000      0.1000    
  47   0.1000      0.1000      0.1000      0.1000      0.1000      0.1000      0.1000      0.1000      0.1000      0.1000    
       0.1000      0.1000      0.1000      0.1000      0.1000      0.1000      0.1000      0.1000      0.1000      0.1000    
       0.1000      0.1000      0.1000      0.1000      0.1000      0.1000      0.1000      0.1000      0.1000      0.1000    
       0.1000      0.1000      0.1000      0.1000      0.1000      0.1000      0.1000      0.1000      0.1000      0.1000    
       0.1000      0.1000      0.1000      0.1000      0.1000      0.1000      0.1000      0.1000      0.1000      0.1000    
       0.1000      0.1000      0.1000      0.1000      0.1000      0.1000      0.1000      0.1000      0.1000      0.1000    
       0.1000      0.1000      0.1000      0.1000      0.1000      0.1000      0.1000      0.1000      0.1000      0.1000    
       0.1000      0.1000      0.1000      0.1000      0.1000      0.1000    
  48   0.1000      0.1000      0.1000      0.1000      0.1000      0.1000      0.1000      0.1000      0.1000      0.1000    
       0.1000      0.1000      0.1000      0.1000      0.1000      0.1000      0.1000      0.1000      0.1000      0.1000    
       0.1000      0.1000      0.1000      0.1000      0.1000      0.1000      0.1000      0.1000      0.1000      0.1000    
       0.1000      0.1000      0.1000      0.1000      0.1000      0.1000      0.1000      0.1000      0.1000      0.1000    
       0.1000      0.1000      0.1000      0.1000      0.1000      0.1000      0.1000      0.1000      0.1000      0.1000    
       0.1000      0.1000      0.1000      0.1000      0.1000      0.1000      0.1000      0.1000      0.1000      0.1000    
       0.1000      0.1000      0.1000      0.1000      0.1000      0.1000      0.1000      0.1000      0.1000      0.1000    
       0.1000      0.1000      0.1000      0.1000      0.1000      0.1000    
  49   0.1000      0.1000      0.1000      0.1000      0.1000      0.1000      0.1000      0.1000      0.1000      0.1000    
       0.1000      0.1000      0.1000      0.1000      0.1000      0.1000      0.1000      0.1000      0.1000      0.1000    
       0.1000      0.1000      0.1000      0.1000      0.1000      0.1000      0.1000      0.1000      0.1000      0.1000    
       0.1000      0.1000      0.1000      0.1000      0.1000      0.1000      0.1000      0.1000      0.1000      0.1000    
       0.1000      0.1000      0.1000      0.1000      0.1000      0.1000      0.1000      0.1000      0.1000      0.1000    
       0.1000      0.1000      0.1000      0.1000      0.1000      0.1000      0.1000      0.1000      0.1000      0.1000    
       0.1000      0.1000      0.1000      0.1000      0.1000      0.1000      0.1000      0.1000      0.1000      0.1000    
       0.1000      0.1000      0.1000      0.1000      0.1000      0.1000    
  50   0.1000      0.1000      0.1000      0.1000      0.1000      0.1000      0.1000      0.1000      0.1000      0.1000    
       0.1000      0.1000      0.1000      0.1000      0.1000      0.1000      0.1000      0.1000      0.1000      0.1000    
       0.1000      0.1000      0.1000      0.1000      0.1000      0.1000      0.1000      0.1000      0.1000      0.1000    
       0.1000      0.1000      0.1000      0.1000      0.1000      0.1000      0.1000      0.1000      0.1000      0.1000    
       0.1000      0.1000      0.1000      0.1000      0.1000      0.1000      0.1000      0.1000      0.1000      0.1000    
       0.1000      0.1000      0.1000      0.1000      0.1000      0.1000      0.1000      0.1000      0.1000      0.1000    
       0.1000      0.1000      0.1000      0.1000      0.1000      0.1000      0.1000      0.1000      0.1000      0.1000    
       0.1000      0.1000      0.1000      0.1000      0.1000      0.1000    
  51   0.1000      0.1000      0.1000      0.1000      0.1000      0.1000      0.1000      0.1000      0.1000      0.1000    
       0.1000      0.1000      0.1000      0.1000      0.1000      0.1000      0.1000      0.1000      0.1000      0.1000    
       0.1000      0.1000      0.1000      0.1000      0.1000      0.1000      0.1000      0.1000      0.1000      0.1000    
       0.1000      0.1000      0.1000      0.1000      0.1000      0.1000      0.1000      0.1000      0.1000      0.1000    
       0.1000      0.1000      0.1000      0.1000      0.1000      0.1000      0.1000      0.1000      0.1000      0.1000    
       0.1000      0.1000      0.1000      0.1000      0.1000      0.1000      0.1000      0.1000      0.1000      0.1000    
       0.1000      0.1000      0.1000      0.1000      0.1000      0.1000      0.1000      0.1000      0.1000      0.1000    
       0.1000      0.1000      0.1000      0.1000      0.1000      0.1000    
  52   0.1000      0.1000      0.1000      0.1000      0.1000      0.1000      0.1000      0.1000      0.1000      0.1000    
       0.1000      0.1000      0.1000      0.1000      0.1000      0.1000      0.1000      0.1000      0.1000      0.1000    
       0.1000      0.1000      0.1000      0.1000      0.1000      0.1000      0.1000      0.1000      0.1000      0.1000    
       0.1000      0.1000      0.1000      0.1000      0.1000      0.1000      0.1000      0.1000      0.1000      0.1000    
       0.1000      0.1000      0.1000      0.1000      0.1000      0.1000      0.1000      0.1000      0.1000      0.1000    
       0.1000      0.1000      0.1000      0.1000      0.1000      0.1000      0.1000      0.1000      0.1000      0.1000    
       0.1000      0.1000      0.1000      0.1000      0.1000      0.1000      0.1000      0.1000      0.1000      0.1000    
       0.1000      0.1000      0.1000      0.1000      0.1000      0.1000    
  53   0.1000      0.1000      0.1000      0.1000      0.1000      0.1000      0.1000      0.1000      0.1000      0.1000    
       0.1000      0.1000      0.1000      0.1000      0.1000      0.1000      0.1000      0.1000      0.1000      0.1000    
       0.1000      0.1000      0.1000      0.1000      0.1000      0.1000      0.1000      0.1000      0.1000      0.1000    
       0.1000      0.1000      0.1000      0.1000      0.1000      0.1000      0.1000      0.1000      0.1000      0.1000    
       0.1000      0.1000      0.1000      0.1000      0.1000      0.1000      0.1000      0.1000      0.1000      0.1000    
       0.1000      0.1000      0.1000      0.1000      0.1000      0.1000      0.1000      0.1000      0.1000      0.1000    
       0.1000      0.1000      0.1000      0.1000      0.1000      0.1000      0.1000      0.1000      0.1000      0.1000    
       0.1000      0.1000      0.1000      0.1000      0.1000      0.1000    
  54   0.1000      0.1000      0.1000      0.1000      0.1000      0.1000      0.1000      0.1000      0.1000      0.1000    
       0.1000      0.1000      0.1000      0.1000      0.1000      0.1000      0.1000      0.1000      0.1000      0.1000    
       0.1000      0.1000      0.1000      0.1000      0.1000      0.1000      0.1000      0.1000      0.1000      0.1000    
       0.1000      0.1000      0.1000      0.1000      0.1000      0.1000      0.1000      0.1000      0.1000      0.1000    
       0.1000      0.1000      0.1000      0.1000      0.1000      0.1000      0.1000      0.1000      0.1000      0.1000    
       0.1000      0.1000      0.1000      0.1000      0.1000      0.1000      0.1000      0.1000      0.1000      0.1000    
       0.1000      0.1000      0.1000      0.1000      0.1000      0.1000      0.1000      0.1000      0.1000      0.1000    
       0.1000      0.1000      0.1000      0.1000      0.1000      0.1000    
  55   0.1000      0.1000      0.1000      0.1000      0.1000      0.1000      0.1000      0.1000      0.1000      0.1000    
       0.1000      0.1000      0.1000      0.1000      0.1000      0.1000      0.1000      0.1000      0.1000      0.1000    
       0.1000      0.1000      0.1000      0.1000      0.1000      0.1000      0.1000      0.1000      0.1000      0.1000    
       0.1000      0.1000      0.1000      0.1000      0.1000      0.1000      0.1000      0.1000      0.1000      0.1000    
       0.1000      0.1000      0.1000      0.1000      0.1000      0.1000      0.1000      0.1000      0.1000      0.1000    
       0.1000      0.1000      0.1000      0.1000      0.1000      0.1000      0.1000      0.1000      0.1000      0.1000    
       0.1000      0.1000      0.1000      0.1000      0.1000      0.1000      0.1000      0.1000      0.1000      0.1000    
       0.1000      0.1000      0.1000      0.1000      0.1000      0.1000    
  56   0.1000      0.1000      0.1000      0.1000      0.1000      0.1000      0.1000      0.1000      0.1000      0.1000    
       0.1000      0.1000      0.1000      0.1000      0.1000      0.1000      0.1000      0.1000      0.1000      0.1000    
       0.1000      0.1000      0.1000      0.1000      0.1000      0.1000      0.1000      0.1000      0.1000      0.1000    
       0.1000      0.1000      0.1000      0.1000      0.1000      0.1000      0.1000      0.1000      0.1000      0.1000    
       0.1000      0.1000      0.1000      0.1000      0.1000      0.1000      0.1000      0.1000      0.1000      0.1000    
       0.1000      0.1000      0.1000      0.1000      0.1000      0.1000      0.1000      0.1000      0.1000      0.1000    
       0.1000      0.1000      0.1000      0.1000      0.1000      0.1000      0.1000      0.1000      0.1000      0.1000    
       0.1000      0.1000      0.1000      0.1000      0.1000      0.1000    
  57   0.1000      0.1000      0.1000      0.1000      0.1000      0.1000      0.1000      0.1000      0.1000      0.1000    
       0.1000      0.1000      0.1000      0.1000      0.1000      0.1000      0.1000      0.1000      0.1000      0.1000    
       0.1000      0.1000      0.1000      0.1000      0.1000      0.1000      0.1000      0.1000      0.1000      0.1000    
       0.1000      0.1000      0.1000      0.1000      0.1000      0.1000      0.1000      0.1000      0.1000      0.1000    
       0.1000      0.1000      0.1000      0.1000      0.1000      0.1000      0.1000      0.1000      0.1000      0.1000    
       0.1000      0.1000      0.1000      0.1000      0.1000      0.1000      0.1000      0.1000      0.1000      0.1000    
       0.1000      0.1000      0.1000      0.1000      0.1000      0.1000      0.1000      0.1000      0.1000      0.1000    
       0.1000      0.1000      0.1000      0.1000      0.1000      0.1000    
  58   0.1000      0.1000      0.1000      0.1000      0.1000      0.1000      0.1000      0.1000      0.1000      0.1000    
       0.1000      0.1000      0.1000      0.1000      0.1000      0.1000      0.1000      0.1000      0.1000      0.1000    
       0.1000      0.1000       0.000      0.1000      0.1000      0.1000      0.1000      0.1000      0.1000      0.1000    
       0.1000      0.1000      0.1000      0.1000      0.1000      0.1000      0.1000      0.1000      0.1000      0.1000    
       0.1000      0.1000      0.1000      0.1000      0.1000      0.1000      0.1000      0.1000      0.1000      0.1000    
       0.1000      0.1000      0.1000      0.1000      0.1000      0.1000      0.1000      0.1000      0.1000      0.1000    
       0.1000      0.1000      0.1000      0.1000      0.1000      0.1000      0.1000      0.1000      0.1000      0.1000    
       0.1000      0.1000      0.1000      0.1000      0.1000      0.1000    
  59   0.1000      0.1000      0.1000      0.1000      0.1000      0.1000      0.1000      0.1000      0.1000      0.1000    
       0.1000      0.1000      0.1000      0.1000      0.1000      0.1000      0.1000      0.1000      0.1000      0.1000    
       0.1000      0.1000      0.1000      0.1000      0.1000      0.1000      0.1000      0.1000      0.1000      0.1000    
       0.1000      0.1000      0.1000      0.1000      0.1000      0.1000      0.1000      0.1000      0.1000      0.1000    
       0.1000      0.1000      0.1000      0.1000      0.1000      0.1000      0.1000      0.1000      0.1000      0.1000    
       0.1000      0.1000      0.1000      0.1000      0.1000      0.1000      0.1000      0.1000      0.1000      0.1000    
       0.1000      0.1000      0.1000      0.1000      0.1000      0.1000      0.1000      0.1000      0.1000      0.1000    
       0.1000      0.1000      0.1000      0.1000      0.1000      0.1000    
  60   0.1000      0.1000      0.1000      0.1000      0.1000      0.1000      0.1000      0.1000      0.1000      0.1000    
       0.1000      0.1000      0.1000      0.1000      0.1000      0.1000      0.1000      0.1000      0.1000      0.1000    
       0.1000      0.1000      0.1000      0.1000      0.1000      0.1000      0.1000      0.1000      0.1000      0.1000    
       0.1000      0.1000      0.1000      0.1000      0.1000      0.1000      0.1000      0.1000      0.1000      0.1000    
       0.1000      0.1000      0.1000      0.1000      0.1000      0.1000      0.1000      0.1000      0.1000      0.1000    
       0.1000      0.1000      0.1000      0.1000      0.1000      0.1000      0.1000      0.1000      0.1000      0.1000    
       0.1000      0.1000      0.1000      0.1000      0.1000      0.1000      0.1000      0.1000      0.1000      0.1000    
       0.1000      0.1000      0.1000      0.1000      0.1000      0.1000    
  61   0.1000      0.1000      0.1000      0.1000      0.1000      0.1000      0.1000      0.1000      0.1000      0.1000    
       0.1000      0.1000      0.1000      0.1000      0.1000      0.1000      0.1000      0.1000      0.1000      0.1000    
       0.1000       0.000      0.1000      0.1000      0.1000      0.1000      0.1000      0.1000      0.1000      0.1000    
       0.1000      0.1000      0.1000      0.1000      0.1000      0.1000      0.1000      0.1000      0.1000      0.1000    
       0.1000      0.1000      0.1000      0.1000      0.1000      0.1000      0.1000      0.1000      0.1000      0.1000    
       0.1000      0.1000      0.1000      0.1000      0.1000      0.1000      0.1000      0.1000      0.1000      0.1000    
       0.1000      0.1000      0.1000      0.1000      0.1000      0.1000      0.1000      0.1000      0.1000      0.1000    
       0.1000      0.1000      0.1000      0.1000      0.1000      0.1000    
  62   0.1000      0.1000      0.1000      0.1000      0.1000      0.1000      0.1000      0.1000      0.1000      0.1000    
       0.1000      0.1000      0.1000      0.1000      0.1000      0.1000      0.1000      0.1000      0.1000      0.1000    
       0.1000       0.000      0.1000      0.1000      0.1000      0.1000      0.1000      0.1000      0.1000      0.1000    
       0.1000      0.1000      0.1000      0.1000      0.1000      0.1000      0.1000      0.1000      0.1000      0.1000    
       0.1000      0.1000      0.1000      0.1000      0.1000      0.1000      0.1000      0.1000      0.1000      0.1000    
       0.1000      0.1000      0.1000      0.1000      0.1000      0.1000      0.1000      0.1000      0.1000      0.1000    
       0.1000      0.1000      0.1000      0.1000      0.1000      0.1000      0.1000      0.1000      0.1000      0.1000    
       0.1000      0.1000      0.1000      0.1000      0.1000      0.1000    
  63   0.1000      0.1000      0.1000      0.1000      0.1000      0.1000      0.1000      0.1000      0.1000      0.1000    
       0.1000      0.1000      0.1000      0.1000      0.1000      0.1000      0.1000      0.1000      0.1000      0.1000    
       0.1000      0.1000      0.1000      0.1000      0.1000      0.1000      0.1000      0.1000      0.1000      0.1000    
       0.1000      0.1000      0.1000      0.1000      0.1000      0.1000      0.1000      0.1000      0.1000      0.1000    
       0.1000      0.1000      0.1000      0.1000      0.1000      0.1000      0.1000      0.1000      0.1000      0.1000    
       0.1000      0.1000      0.1000      0.1000      0.1000      0.1000      0.1000      0.1000      0.1000      0.1000    
       0.1000      0.1000      0.1000      0.1000      0.1000      0.1000      0.1000      0.1000      0.1000      0.1000    
       0.1000      0.1000      0.1000      0.1000      0.1000      0.1000    
  64   0.1000      0.1000      0.1000      0.1000      0.1000      0.1000      0.1000      0.1000      0.1000      0.1000    
       0.1000      0.1000      0.1000      0.1000      0.1000      0.1000      0.1000      0.1000      0.1000      0.1000    
        0.000      0.1000      0.1000      0.1000      0.1000      0.1000      0.1000      0.1000      0.1000      0.1000    
       0.1000      0.1000      0.1000      0.1000      0.1000      0.1000      0.1000      0.1000      0.1000      0.1000    
       0.1000      0.1000      0.1000      0.1000      0.1000      0.1000      0.1000      0.1000      0.1000      0.1000    
       0.1000      0.1000      0.1000      0.1000      0.1000      0.1000      0.1000      0.1000      0.1000      0.1000    
       0.1000      0.1000      0.1000      0.1000      0.1000      0.1000      0.1000      0.1000      0.1000      0.1000    
       0.1000      0.1000      0.1000      0.1000      0.1000      0.1000    
  65   0.1000      0.1000      0.1000      0.1000      0.1000      0.1000      0.1000      0.1000      0.1000      0.1000    
       0.1000      0.1000      0.1000      0.1000      0.1000      0.1000      0.1000      0.1000      0.1000      0.1000    
        0.000      0.1000      0.1000      0.1000      0.1000      0.1000      0.1000      0.1000      0.1000      0.1000    
       0.1000      0.1000      0.1000      0.1000      0.1000      0.1000      0.1000      0.1000      0.1000      0.1000    
       0.1000      0.1000      0.1000      0.1000      0.1000      0.1000      0.1000      0.1000      0.1000      0.1000    
       0.1000      0.1000      0.1000      0.1000      0.1000      0.1000      0.1000      0.1000      0.1000      0.1000    
       0.1000      0.1000      0.1000      0.1000      0.1000      0.1000      0.1000      0.1000      0.1000      0.1000    
       0.1000      0.1000      0.1000      0.1000      0.1000      0.1000    
  66   0.1000      0.1000      0.1000      0.1000      0.1000      0.1000      0.1000      0.1000      0.1000      0.1000    
       0.1000      0.1000      0.1000      0.1000      0.1000      0.1000      0.1000      0.1000      0.1000      0.1000    
        0.000      0.1000      0.1000      0.1000      0.1000      0.1000      0.1000      0.1000      0.1000      0.1000    
       0.1000      0.1000      0.1000      0.1000      0.1000      0.1000      0.1000      0.1000      0.1000      0.1000    
       0.1000      0.1000      0.1000      0.1000      0.1000      0.1000      0.1000      0.1000      0.1000      0.1000    
       0.1000      0.1000      0.1000      0.1000      0.1000      0.1000      0.1000      0.1000      0.1000      0.1000    
       0.1000      0.1000      0.1000      0.1000      0.1000      0.1000      0.1000      0.1000      0.1000      0.1000    
       0.1000      0.1000      0.1000      0.1000      0.1000      0.1000    
  67   0.1000      0.1000      0.1000      0.1000      0.1000      0.1000      0.1000      0.1000      0.1000      0.1000    
       0.1000      0.1000      0.1000      0.1000      0.1000      0.1000      0.1000      0.1000      0.1000      0.1000    
       0.1000      0.1000      0.1000      0.1000      0.1000      0.1000      0.1000      0.1000      0.1000      0.1000    
       0.1000      0.1000      0.1000      0.1000      0.1000      0.1000      0.1000      0.1000      0.1000      0.1000    
       0.1000      0.1000      0.1000      0.1000      0.1000      0.1000      0.1000      0.1000      0.1000      0.1000    
       0.1000      0.1000      0.1000      0.1000      0.1000      0.1000      0.1000      0.1000      0.1000      0.1000    
       0.1000      0.1000      0.1000      0.1000      0.1000      0.1000      0.1000      0.1000      0.1000      0.1000    
       0.1000      0.1000      0.1000      0.1000      0.1000      0.1000    
  68   0.1000      0.1000      0.1000      0.1000      0.1000      0.1000      0.1000      0.1000      0.1000      0.1000    
       0.1000      0.1000      0.1000      0.1000      0.1000      0.1000      0.1000      0.1000      0.1000       0.000    
       0.1000      0.1000      0.1000      0.1000      0.1000      0.1000      0.1000      0.1000      0.1000      0.1000    
       0.1000      0.1000      0.1000      0.1000      0.1000      0.1000      0.1000      0.1000      0.1000      0.1000    
       0.1000      0.1000      0.1000      0.1000      0.1000      0.1000      0.1000      0.1000      0.1000      0.1000    
       0.1000      0.1000      0.1000      0.1000      0.1000      0.1000      0.1000      0.1000      0.1000      0.1000    
       0.1000      0.1000      0.1000      0.1000      0.1000      0.1000      0.1000      0.1000      0.1000      0.1000    
       0.1000      0.1000      0.1000      0.1000      0.1000      0.1000    
  69   0.1000      0.1000      0.1000      0.1000      0.1000      0.1000      0.1000      0.1000      0.1000      0.1000    
       0.1000      0.1000      0.1000      0.1000      0.1000      0.1000      0.1000      0.1000      0.1000       0.000    
       0.1000      0.1000      0.1000      0.1000      0.1000      0.1000      0.1000      0.1000      0.1000      0.1000    
       0.1000      0.1000      0.1000      0.1000      0.1000      0.1000      0.1000      0.1000      0.1000      0.1000    
       0.1000      0.1000      0.1000      0.1000      0.1000      0.1000      0.1000      0.1000      0.1000      0.1000    
       0.1000      0.1000      0.1000      0.1000      0.1000      0.1000      0.1000      0.1000      0.1000      0.1000    
       0.1000      0.1000      0.1000      0.1000      0.1000      0.1000      0.1000      0.1000      0.1000      0.1000    
       0.1000      0.1000      0.1000      0.1000      0.1000      0.1000    
  70   0.1000      0.1000      0.1000      0.1000      0.1000      0.1000      0.1000      0.1000      0.1000      0.1000    
       0.1000      0.1000      0.1000      0.1000      0.1000      0.1000      0.1000      0.1000      0.1000       0.000    
       0.1000      0.1000      0.1000      0.1000      0.1000      0.1000      0.1000      0.1000      0.1000      0.1000    
       0.1000      0.1000      0.1000      0.1000      0.1000      0.1000      0.1000      0.1000      0.1000      0.1000    
       0.1000      0.1000      0.1000      0.1000      0.1000      0.1000      0.1000      0.1000      0.1000      0.1000    
       0.1000      0.1000      0.1000      0.1000      0.1000      0.1000      0.1000      0.1000      0.1000      0.1000    
       0.1000      0.1000      0.1000      0.1000      0.1000      0.1000      0.1000      0.1000      0.1000      0.1000    
       0.1000      0.1000      0.1000      0.1000      0.1000      0.1000    
  71   0.1000      0.1000      0.1000      0.1000      0.1000      0.1000      0.1000      0.1000      0.1000      0.1000    
       0.1000      0.1000      0.1000      0.1000      0.1000      0.1000      0.1000      0.1000       0.000      0.1000    
       0.1000      0.1000      0.1000      0.1000      0.1000      0.1000      0.1000      0.1000      0.1000      0.1000    
       0.1000      0.1000      0.1000      0.1000      0.1000      0.1000      0.1000      0.1000      0.1000      0.1000    
       0.1000      0.1000      0.1000      0.1000      0.1000      0.1000      0.1000      0.1000      0.1000      0.1000    
       0.1000      0.1000      0.1000      0.1000      0.1000      0.1000      0.1000      0.1000      0.1000      0.1000    
       0.1000      0.1000      0.1000      0.1000      0.1000      0.1000      0.1000      0.1000      0.1000      0.1000    
       0.1000      0.1000      0.1000      0.1000      0.1000      0.1000    
  72    1.000       1.000       1.000       1.000       1.000       1.000       1.000       1.000       1.000       1.000    
        1.000       1.000       1.000       1.000       1.000       1.000       1.000       1.000       0.000       1.000    
        1.000       1.000       1.000       1.000       1.000       1.000       1.000       1.000       1.000       1.000    
        1.000       1.000       1.000       1.000       1.000       1.000       1.000       1.000       1.000       1.000    
        1.000       1.000       1.000       1.000       1.000       1.000       1.000       1.000       1.000       1.000    
        1.000       1.000       1.000       1.000       1.000       1.000       1.000       1.000       1.000       1.000    
        1.000       1.000       1.000       1.000       1.000       1.000       1.000       1.000       1.000       1.000    
        1.000       1.000       1.000       1.000       1.000       1.000    
  73    1.000       1.000       1.000       1.000       1.000       1.000       1.000       1.000       1.000       1.000    
        1.000       1.000       1.000       1.000       1.000       1.000       1.000       1.000       0.000       1.000    
        1.000       1.000       1.000       1.000       1.000       1.000       1.000       1.000       1.000       1.000    
        1.000       1.000       1.000       1.000       1.000       1.000       1.000       1.000       1.000       1.000    
        1.000       1.000       1.000       1.000       1.000       1.000       1.000       1.000       1.000       1.000    
        1.000       1.000       1.000       1.000       1.000       1.000       1.000       1.000       1.000       1.000    
        1.000       1.000       1.000       1.000       1.000       1.000       1.000       1.000       1.000       1.000    
        1.000       1.000       1.000       1.000       1.000       1.000    
  74    1.000       1.000       1.000       1.000       1.000       1.000       1.000       1.000       1.000       1.000    
        1.000       1.000       1.000       1.000       1.000       1.000       1.000       0.000       0.000       1.000    
        1.000       1.000       1.000       1.000       1.000       1.000       1.000       1.000       1.000       1.000    
        1.000       1.000       1.000       1.000       1.000       1.000       1.000       1.000       1.000       1.000    
        1.000       1.000       1.000       1.000       1.000       1.000       1.000       1.000       1.000       1.000    
        1.000       1.000       1.000       1.000       1.000       1.000       1.000       1.000       1.000       1.000    
        1.000       1.000       1.000       1.000       1.000       1.000       1.000       1.000       1.000       1.000    
        1.000       1.000       1.000       1.000       1.000       1.000    
  75    1.000       1.000       1.000       1.000       1.000       1.000       1.000       1.000       1.000       1.000    
        1.000       1.000       1.000       1.000       1.000       1.000       1.000       0.000       1.000       1.000    
        1.000       1.000       1.000       1.000       1.000       1.000       1.000       1.000       1.000       1.000    
        1.000       1.000       1.000       1.000       1.000       1.000       1.000       1.000       1.000       1.000    
        1.000       1.000       1.000       1.000       1.000       1.000       1.000       1.000       1.000       1.000    
        1.000       1.000       1.000       1.000       1.000       1.000       1.000       1.000       1.000       1.000    
        1.000       1.000       1.000       1.000       1.000       1.000       1.000       1.000       1.000       1.000    
        1.000       1.000       1.000       1.000       1.000       1.000    
  76    1.000       1.000       1.000       1.000       1.000       1.000       1.000       1.000       1.000       1.000    
        1.000       1.000       1.000       1.000       1.000       1.000       1.000       0.000       1.000       1.000    
        1.000       1.000       1.000       1.000       1.000       1.000       1.000       1.000       1.000       1.000    
        1.000       1.000       1.000       1.000       1.000       1.000       1.000       1.000       1.000       1.000    
        1.000       1.000       1.000       1.000       1.000       1.000       1.000       1.000       1.000       1.000    
        1.000       1.000       1.000       1.000       1.000       1.000       1.000       1.000       1.000       1.000    
        1.000       1.000       1.000       1.000       1.000       1.000       1.000       1.000       1.000       1.000    
        1.000       1.000       1.000       1.000       1.000       1.000    
  77    1.000       1.000       1.000       1.000       1.000       1.000       1.000       1.000       1.000       1.000    
        1.000       1.000       1.000       1.000       1.000       1.000       0.000       0.000       1.000       1.000    
        1.000       1.000       1.000       1.000       1.000       1.000       1.000       1.000       1.000       1.000    
        1.000       1.000       1.000       1.000       1.000       1.000       1.000       1.000       1.000       1.000    
        1.000       1.000       1.000       1.000       1.000       1.000       1.000       1.000       1.000       1.000    
        1.000       1.000       1.000       1.000       1.000       1.000       1.000       1.000       1.000       1.000    
        1.000       1.000       1.000       1.000       1.000       1.000       1.000       1.000       1.000       1.000    
        1.000       1.000       1.000       1.000       1.000       1.000    
  78    1.000       1.000       1.000       1.000       1.000       1.000       1.000       1.000       1.000       1.000    
        1.000       1.000       1.000       1.000       1.000       1.000       0.000       0.000       1.000       1.000    
        1.000       1.000       1.000       1.000       1.000       1.000       1.000       1.000       1.000       1.000    
        1.000       1.000       1.000       1.000       1.000       1.000       1.000       1.000       1.000       1.000    
        1.000       1.000       1.000       1.000       1.000       1.000       1.000       1.000       1.000       1.000    
        1.000       1.000       1.000       1.000       1.000       1.000       1.000       1.000       1.000       1.000    
        1.000       1.000       1.000       1.000       1.000       1.000       1.000       1.000       1.000       1.000    
        1.000       1.000       1.000       1.000       1.000       1.000    
  79    1.000       1.000       1.000       1.000       1.000       1.000       1.000       1.000       1.000       1.000    
        1.000       1.000       1.000       1.000       1.000       1.000       0.000       0.000       1.000       1.000    
        1.000       1.000       1.000       1.000       1.000       1.000       1.000       1.000       1.000       1.000    
        1.000       1.000       1.000       1.000       1.000       1.000       1.000       1.000       1.000       1.000    
        1.000       1.000       1.000       1.000       1.000       1.000       1.000       1.000       1.000       1.000    
        1.000       1.000       1.000       1.000       1.000       1.000       1.000       1.000       1.000       1.000    
        1.000       1.000       1.000       1.000       1.000       1.000       1.000       1.000       1.000       1.000    
        1.000       1.000       1.000       1.000       1.000       1.000    
  80    1.000       1.000       1.000       1.000       1.000       1.000       1.000       1.000       1.000       1.000    
        1.000       1.000       1.000       1.000       1.000       1.000       0.000       1.000       1.000       1.000    
        1.000       1.000       1.000       1.000       1.000       1.000       1.000       1.000       1.000       1.000    
        1.000       1.000       1.000       1.000       1.000       1.000       1.000       1.000       1.000       1.000    
        1.000       1.000       1.000       1.000       1.000       1.000       1.000       1.000       1.000       1.000    
        1.000       1.000       1.000       1.000       1.000       1.000       1.000       1.000       1.000       1.000    
        1.000       1.000       1.000       1.000       1.000       1.000       1.000       1.000       1.000       1.000    
        1.000       1.000       1.000       1.000       1.000       1.000    
  81    1.000       1.000       1.000       1.000       1.000       1.000       1.000       1.000       1.000       1.000    
        1.000       1.000       1.000       1.000       1.000       0.000       0.000       1.000       1.000       1.000    
        1.000       1.000       1.000       1.000       1.000       1.000       1.000       1.000       1.000       1.000    
        1.000       1.000       1.000       1.000       1.000       1.000       1.000       1.000       1.000       1.000    
        1.000       1.000       1.000       1.000       1.000       1.000       1.000       1.000       1.000       1.000    
        1.000       1.000       1.000       1.000       1.000       1.000       1.000       1.000       1.000       1.000    
        1.000       1.000       1.000       1.000       1.000       1.000       1.000       1.000       1.000       1.000    
        1.000       1.000       1.000       1.000       1.000       1.000    
  82    1.000       1.000       1.000       1.000       1.000       1.000       1.000       1.000       1.000       1.000    
        1.000       1.000       1.000       1.000       1.000       0.000       0.000       1.000       1.000       1.000    
        1.000       1.000       1.000       1.000       1.000       1.000       1.000       1.000       1.000       1.000    
        1.000       1.000       1.000       1.000       1.000       1.000       1.000       1.000       1.000       1.000    
        1.000       1.000       1.000       1.000       1.000       1.000       1.000       1.000       1.000       1.000    
        1.000       1.000       1.000       1.000       1.000       1.000       1.000       1.000       1.000       1.000    
        1.000       1.000       1.000       1.000       1.000       1.000       1.000       1.000       1.000       1.000    
        1.000       1.000       1.000       1.000       1.000       1.000    
  83    1.000       1.000       1.000       1.000       1.000       1.000       1.000       1.000       1.000       1.000    
        1.000       1.000       1.000       1.000       1.000       0.000       1.000       1.000       1.000       1.000    
        1.000       1.000       1.000       1.000       1.000       1.000       1.000       1.000       1.000       1.000    
        1.000       1.000       1.000       1.000       1.000       1.000       1.000       1.000       1.000       1.000    
        1.000       1.000       1.000       1.000       1.000       1.000       1.000       1.000       1.000       1.000    
        1.000       1.000       1.000       1.000       1.000       1.000       1.000       1.000       1.000       1.000    
        1.000       1.000       1.000       1.000       1.000       1.000       1.000       1.000       1.000       1.000    
        1.000       1.000       1.000       1.000       1.000       1.000    
  84    1.000       1.000       1.000       1.000       1.000       1.000       1.000       1.000       1.000       1.000    
        1.000       1.000       1.000       1.000       0.000       0.000       1.000       1.000       1.000       1.000    
        1.000       1.000       1.000       1.000       1.000       1.000       1.000       1.000       1.000       1.000    
        1.000       1.000       1.000       1.000       1.000       1.000       1.000       1.000       1.000       1.000    
        1.000       1.000       1.000       1.000       1.000       1.000       1.000       1.000       1.000       1.000    
        1.000       1.000       1.000       1.000       1.000       1.000       1.000       1.000       1.000       1.000    
        1.000       1.000       1.000       1.000       1.000       1.000       1.000       1.000       1.000       1.000    
        1.000       1.000       1.000       1.000       1.000       1.000    
  85    1.000       1.000       1.000       1.000       1.000       1.000       1.000       1.000       1.000       1.000    
        1.000       1.000       1.000       1.000       0.000       0.000       1.000       1.000       1.000       1.000    
        1.000       1.000       1.000       1.000       1.000       1.000       1.000       1.000       1.000       1.000    
        1.000       1.000       1.000       1.000       1.000       1.000       1.000       1.000       1.000       1.000    
        1.000       1.000       1.000       1.000       1.000       1.000       1.000       1.000       1.000       1.000    
        1.000       1.000       1.000       1.000       1.000       1.000       1.000       1.000       1.000       1.000    
        1.000       1.000       1.000       1.000       1.000       1.000       1.000       1.000       1.000       1.000    
        1.000       1.000       1.000       1.000       1.000       1.000    
  86    1.000       1.000       1.000       1.000       1.000       1.000       1.000       1.000       1.000       1.000    
        1.000       1.000       1.000       1.000       0.000       1.000       1.000       1.000       1.000       1.000    
        1.000       1.000       1.000       1.000       1.000       1.000       1.000       1.000       1.000       1.000    
        1.000       1.000       1.000       1.000       1.000       1.000       1.000       1.000       1.000       1.000    
        1.000       1.000       1.000       1.000       1.000       1.000       1.000       1.000       1.000       1.000    
        1.000       1.000       1.000       1.000       1.000       1.000       1.000       1.000       1.000       1.000    
        1.000       1.000       1.000       1.000       1.000       1.000       1.000       1.000       1.000       1.000    
        1.000       1.000       1.000       1.000       1.000       1.000    
  87    1.000       1.000       1.000       1.000       1.000       1.000       1.000       1.000       1.000       1.000    
        1.000       1.000       1.000       0.000       0.000       1.000       1.000       1.000       1.000       1.000    
        1.000       1.000       1.000       1.000       1.000       1.000       1.000       1.000       1.000       1.000    
        1.000       1.000       1.000       1.000       1.000       1.000       1.000       1.000       1.000       1.000    
        1.000       1.000       1.000       1.000       1.000       1.000       1.000       1.000       1.000       1.000    
        1.000       1.000       1.000       1.000       1.000       1.000       1.000       1.000       1.000       1.000    
        1.000       1.000       1.000       1.000       1.000       1.000       1.000       1.000       1.000       1.000    
        1.000       1.000       1.000       1.000       1.000       1.000    
  88    1.000       1.000       1.000       1.000       1.000       1.000       1.000       1.000       1.000       1.000    
        1.000       1.000       1.000       0.000       0.000       1.000       1.000       1.000       1.000       1.000    
        1.000       1.000       1.000       1.000       1.000       1.000       1.000       1.000       1.000       1.000    
        1.000       1.000       1.000       1.000       1.000       1.000       1.000       1.000       1.000       1.000    
        1.000       1.000       1.000       1.000       1.000       1.000       1.000       1.000       1.000       1.000    
        1.000       1.000       1.000       1.000       1.000       1.000       1.000       1.000       1.000       1.000    
        1.000       1.000       1.000       1.000       1.000       1.000       1.000       1.000       1.000       1.000    
        1.000       1.000       1.000       1.000       1.000       1.000    
  89    1.000       1.000       1.000       1.000       1.000       1.000       1.000       1.000       1.000       1.000    
        1.000       1.000       1.000       0.000       1.000       1.000       1.000       1.000       1.000       1.000    
        1.000       1.000       1.000       1.000       1.000       1.000       1.000       1.000       1.000       1.000    
        1.000       1.000       1.000       1.000       1.000       1.000       1.000       1.000       1.000       1.000    
        1.000       1.000       1.000       1.000       1.000       1.000       1.000       1.000       1.000       1.000    
        1.000       1.000       1.000       1.000       1.000       1.000       1.000       1.000       1.000       1.000    
        1.000       1.000       1.000       1.000       1.000       1.000       1.000       1.000       1.000       1.000    
        1.000       1.000       1.000       1.000       1.000       1.000    
  90    1.000       1.000       1.000       1.000       1.000       1.000       1.000       1.000       1.000       1.000    
        1.000       1.000       0.000       0.000       1.000       1.000       1.000       1.000       1.000       1.000    
        1.000       1.000       1.000       1.000       1.000       1.000       1.000       1.000       1.000       1.000    
        1.000       1.000       1.000       1.000       1.000       1.000       1.000       1.000       1.000       1.000    
        1.000       1.000       1.000       1.000       1.000       1.000       1.000       1.000       1.000       1.000    
        1.000       1.000       1.000       1.000       1.000       1.000       1.000       1.000       1.000       1.000    
        1.000       1.000       1.000       1.000       1.000       1.000       1.000       1.000       1.000       1.000    
        1.000       1.000       1.000       1.000       1.000       1.000    
  91    1.000       1.000       1.000       1.000       1.000       1.000       1.000       1.000       1.000       1.000    
        1.000       1.000       0.000       0.000       1.000       1.000       1.000       1.000       1.000       1.000    
        1.000       1.000       1.000       1.000       1.000       1.000       1.000       1.000       1.000       1.000    
        1.000       1.000       1.000       1.000       1.000       1.000       1.000       1.000       1.000       1.000    
        1.000       1.000       1.000       1.000       1.000       1.000       1.000       1.000       1.000       1.000    
        1.000       1.000       1.000       1.000       1.000       1.000       1.000       1.000       1.000       1.000    
        1.000       1.000       1.000       1.000       1.000       1.000       1.000       1.000       1.000       1.000    
        1.000       1.000       1.000       1.000       1.000       1.000    
  92    1.000       1.000       1.000       1.000       1.000       1.000       1.000       1.000       1.000       1.000    
        1.000       1.000       0.000       1.000       1.000       1.000       1.000       1.000       1.000       1.000    
        1.000       1.000       1.000       1.000       1.000       1.000       1.000       1.000       1.000       1.000    
        1.000       1.000       1.000       1.000       1.000       1.000       1.000       1.000       1.000       1.000    
        1.000       1.000       1.000       1.000       1.000       1.000       1.000       1.000       1.000       1.000    
        1.000       1.000       1.000       1.000       1.000       1.000       1.000       1.000       1.000       1.000    
        1.000       1.000       1.000       1.000       1.000       1.000       1.000       1.000       1.000       1.000    
        1.000       1.000       1.000       1.000       1.000       1.000    
  93    1.000       1.000       1.000       1.000       1.000       1.000       1.000       1.000       1.000       1.000    
        1.000       1.000       0.000       1.000       1.000       1.000       1.000       1.000       1.000       1.000    
        1.000       1.000       1.000       1.000       1.000       1.000       1.000       1.000       1.000       1.000    
        1.000       1.000       1.000       1.000       1.000       1.000       1.000       1.000       1.000       1.000    
        1.000       1.000       1.000       1.000       1.000       1.000       1.000       1.000       1.000       1.000    
        1.000       1.000       1.000       1.000       1.000       1.000       1.000       1.000       1.000       1.000    
        1.000       1.000       1.000       1.000       1.000       1.000       1.000       1.000       1.000       1.000    
        1.000       1.000       1.000       1.000       1.000       1.000    
  94    1.000       1.000       1.000       1.000       1.000       1.000       1.000       1.000       1.000       1.000    
        1.000       0.000       0.000       1.000       1.000       1.000       1.000       1.000       1.000       1.000    
        1.000       1.000       1.000       1.000       1.000       1.000       1.000       1.000       1.000       1.000    
        1.000       1.000       1.000       1.000       1.000       1.000       1.000       1.000       1.000       1.000    
        1.000       1.000       1.000       1.000       1.000       1.000       1.000       1.000       1.000       1.000    
        1.000       1.000       1.000       1.000       1.000       1.000       1.000       1.000       1.000       1.000    
        1.000       1.000       1.000       1.000       1.000       1.000       1.000       1.000       1.000       1.000    
        1.000       1.000       1.000       1.000       1.000       1.000    
  95    1.000       1.000       1.000       1.000       1.000       1.000       1.000       1.000       1.000       1.000    
        1.000       0.000       1.000       1.000       1.000       1.000       1.000       1.000       1.000       1.000    
        1.000       1.000       1.000       1.000       1.000       1.000       1.000       1.000       1.000       1.000    
        1.000       1.000       1.000       1.000       1.000       1.000       1.000       1.000       1.000       1.000    
        1.000       1.000       1.000       1.000       1.000       1.000       1.000       1.000       1.000       1.000    
        1.000       1.000       1.000       1.000       1.000       1.000       1.000       1.000       1.000       1.000    
        1.000       1.000       1.000       1.000       1.000       1.000       1.000       1.000       1.000       1.000    
        1.000       1.000       1.000       1.000       1.000       1.000    
  96    1.000       1.000       1.000       1.000       1.000       1.000       1.000       1.000       1.000       1.000    
        1.000       0.000       1.000       1.000       1.000       1.000       1.000       1.000       1.000       1.000    
        1.000       1.000       1.000       1.000       1.000       1.000       1.000       1.000       1.000       1.000    
        1.000       1.000       1.000       1.000       1.000       1.000       1.000       1.000       1.000       1.000    
        1.000       1.000       1.000       1.000       1.000       1.000       1.000       1.000       1.000       1.000    
        1.000       1.000       1.000       1.000       1.000       1.000       1.000       1.000       1.000       1.000    
        1.000       1.000       1.000       1.000       1.000       1.000       1.000       1.000       1.000       1.000    
        1.000       1.000       1.000       1.000       1.000       1.000    
  97    1.000       1.000       1.000       1.000       1.000       1.000       1.000       1.000       1.000       1.000    
        0.000       0.000       1.000       1.000       1.000       1.000       1.000       1.000       1.000       1.000    
        1.000       1.000       1.000       1.000       1.000       1.000       1.000       1.000       1.000       1.000    
        1.000       1.000       1.000       1.000       1.000       1.000       1.000       1.000       1.000       1.000    
        1.000       1.000       1.000       1.000       1.000       1.000       1.000       1.000       1.000       1.000    
        1.000       1.000       1.000       1.000       1.000       1.000       1.000       1.000       1.000       1.000    
        1.000       1.000       1.000       1.000       1.000       1.000       1.000       1.000       1.000       1.000    
        1.000       1.000       1.000       1.000       1.000       1.000    
  98    1.000       1.000       1.000       1.000       1.000       1.000       1.000       1.000       1.000       1.000    
        0.000       1.000       1.000       1.000       1.000       1.000       1.000       1.000       1.000       1.000    
        1.000       1.000       1.000       1.000       1.000       1.000       1.000       1.000       1.000       1.000    
        1.000       1.000       1.000       1.000       1.000       1.000       1.000       1.000       1.000       1.000    
        1.000       1.000       1.000       1.000       1.000       1.000       1.000       1.000       1.000       1.000    
        1.000       1.000       1.000       1.000       1.000       1.000       1.000       1.000       1.000       1.000    
        1.000       1.000       1.000       1.000       1.000       1.000       1.000       1.000       1.000       1.000    
        1.000       1.000       1.000       1.000       1.000       1.000    
  99    1.000       1.000       1.000       1.000       1.000       1.000       1.000       1.000       1.000       1.000    
        0.000       1.000       1.000       1.000       1.000       1.000       1.000       1.000       1.000       1.000    
        1.000       1.000       1.000       1.000       1.000       1.000       1.000       1.000       1.000       1.000    
        1.000       1.000       1.000       1.000       1.000       1.000       1.000       1.000       1.000       1.000    
        1.000       1.000       1.000       1.000       1.000       1.000       1.000       1.000       1.000       1.000    
        1.000       1.000       1.000       1.000       1.000       1.000       1.000       1.000       1.000       1.000    
        1.000       1.000       1.000       1.000       1.000       1.000       1.000       1.000       1.000       1.000    
        1.000       1.000       1.000       1.000       1.000       1.000    
 100    1.000       1.000       1.000       1.000       1.000       1.000       1.000       1.000       1.000       0.000    
        0.000       1.000       1.000       1.000       1.000       1.000       1.000       1.000       1.000       1.000    
        1.000       1.000       1.000       1.000       1.000       1.000       1.000       1.000       1.000       1.000    
        1.000       1.000       1.000       1.000       1.000       1.000       1.000       1.000       1.000       1.000    
        1.000       1.000       1.000       1.000       1.000       1.000       1.000       1.000       1.000       1.000    
        1.000       1.000       1.000       1.000       1.000       1.000       1.000       1.000       1.000       1.000    
        1.000       1.000       1.000       1.000       1.000       1.000       1.000       1.000       1.000       1.000    
        1.000       1.000       1.000       1.000       1.000       1.000    
 101    1.000       1.000       1.000       1.000       1.000       1.000       1.000       1.000       1.000       0.000    
        1.000       1.000       1.000       1.000       1.000       1.000       1.000       1.000       1.000       1.000    
        1.000       1.000       1.000       1.000       1.000       1.000       1.000       1.000       1.000       1.000    
        1.000       1.000       1.000       1.000       1.000       1.000       1.000       1.000       1.000       1.000    
        1.000       1.000       1.000       1.000       1.000       1.000       1.000       1.000       1.000       1.000    
        1.000       1.000       1.000       1.000       1.000       1.000       1.000       1.000       1.000       1.000    
        1.000       1.000       1.000       1.000       1.000       1.000       1.000       1.000       1.000       1.000    
        1.000       1.000       1.000       1.000       1.000       1.000    
 102    1.000       1.000       1.000       1.000       1.000       1.000       1.000       1.000       1.000       0.000    
        1.000       1.000       1.000       1.000       1.000       1.000       1.000       1.000       1.000       1.000    
        1.000       1.000       1.000       1.000       1.000       1.000       1.000       1.000       1.000       1.000    
        1.000       1.000       1.000       1.000       1.000       1.000       1.000       1.000       1.000       1.000    
        1.000       1.000       1.000       1.000       1.000       1.000       1.000       1.000       1.000       1.000    
        1.000       1.000       1.000       1.000       1.000       1.000       1.000       1.000       1.000       1.000    
        1.000       1.000       1.000       1.000       1.000       1.000       1.000       1.000       1.000       1.000    
        1.000       1.000       1.000       1.000       1.000       1.000    
 103    1.000       1.000       1.000       1.000       1.000       1.000       1.000       1.000       0.000       0.000    
        1.000       1.000       1.000       1.000       1.000       1.000       1.000       1.000       1.000       1.000    
        1.000       1.000       1.000       1.000       1.000       1.000       1.000       1.000       1.000       1.000    
        1.000       1.000       1.000       1.000       1.000       1.000       1.000       1.000       1.000       1.000    
        1.000       1.000       1.000       1.000       1.000       1.000       1.000       1.000       1.000       1.000    
        1.000       1.000       1.000       1.000       1.000       1.000       1.000       1.000       1.000       1.000    
        1.000       1.000       1.000       1.000       1.000       1.000       1.000       1.000       1.000       1.000    
        1.000       1.000       1.000       1.000       1.000       1.000    
 104    1.000       1.000       1.000       1.000       1.000       1.000       1.000       1.000       0.000       0.000    
        1.000       1.000       1.000       1.000       1.000       1.000       1.000       1.000       1.000       1.000    
        1.000       1.000       1.000       1.000       1.000       1.000       1.000       1.000       1.000       1.000    
        1.000       1.000       1.000       1.000       1.000       1.000       1.000       1.000       1.000       1.000    
        1.000       1.000       1.000       1.000       1.000       0.000       0.000       0.000       0.000       0.000    
        0.000       1.000       1.000       1.000       1.000       1.000       1.000       1.000       1.000       1.000    
        1.000       1.000       1.000       1.000       1.000       1.000       1.000       1.000       1.000       1.000    
        1.000       1.000       1.000       1.000       1.000       1.000    
 105    1.000       1.000       1.000       1.000       1.000       1.000       1.000       1.000       0.000       1.000    
        1.000       1.000       1.000       1.000       1.000       1.000       1.000       1.000       1.000       1.000    
        1.000       1.000       1.000       1.000       1.000       1.000       1.000       1.000       1.000       1.000    
        1.000       1.000       1.000       1.000       1.000       1.000       1.000       1.000       1.000       1.000    
        1.000       1.000       0.000       0.000       0.000       0.000       0.000       0.000       0.000       0.000    
        0.000       0.000       0.000       0.000       0.000       0.000       0.000       0.000       1.000       1.000    
        1.000       1.000       1.000       1.000       1.000       1.000       1.000       1.000       1.000       1.000    
        1.000       1.000       1.000       1.000       1.000       1.000    
 106    1.000       1.000       1.000       1.000       1.000       1.000       1.000       1.000       0.000       1.000    
        1.000       1.000       1.000       1.000       1.000       1.000       1.000       1.000       1.000       1.000    
        1.000       1.000       1.000       1.000       1.000       1.000       1.000       1.000       1.000       1.000    
        1.000       1.000       1.000       1.000       1.000       1.000       1.000       1.000       1.000       1.000    
        1.000       1.000       0.000       0.000       0.000       0.000       0.000       0.000       0.000       0.000    
        0.000       0.000       0.000       0.000       0.000       0.000       0.000       0.000       0.000       0.000    
        0.000       0.000       0.000       1.000       1.000       1.000       1.000       1.000       1.000       1.000    
        1.000       1.000       1.000       1.000       1.000       1.000    
 107    1.000       1.000       1.000       1.000       1.000       1.000       1.000       0.000       0.000       1.000    
        1.000       1.000       1.000       1.000       1.000       1.000       1.000       1.000       1.000       1.000    
        1.000       1.000       1.000       1.000       1.000       1.000       1.000       1.000       1.000       1.000    
        1.000       1.000       1.000       1.000       1.000       1.000       1.000       1.000       1.000       1.000    
        1.000       0.000       0.000       0.000       0.000       0.000       0.000       0.000       0.000       0.000    
        0.000       0.000       0.000       0.000       0.000       0.000       0.000       0.000       0.000       0.000    
        0.000       0.000       0.000       0.000       0.000       0.000       0.000       0.000       1.000       1.000    
        1.000       1.000       1.000       1.000       1.000       1.000    
 108    1.000       1.000       1.000       1.000       1.000       1.000       1.000       0.000       1.000       1.000    
        1.000       1.000       1.000       1.000       1.000       1.000       1.000       1.000       1.000       1.000    
        1.000       1.000       1.000       1.000       1.000       1.000       1.000       1.000       1.000       1.000    
        1.000       1.000       1.000       1.000       1.000       1.000       1.000       1.000       1.000       1.000    
        1.000       0.000       0.000       0.000       0.000       0.000       0.000       0.000       0.000       0.000    
        0.000       0.000       0.000       0.000       0.000       0.000       0.000       0.000       0.000       0.000    
        0.000       0.000       0.000       0.000       0.000       0.000       0.000       0.000       0.000       0.000    
        0.000       0.000       1.000       1.000       1.000       1.000    
 109    1.000       1.000       1.000       1.000       1.000       1.000       1.000       0.000       1.000       1.000    
        1.000       1.000       1.000       1.000       1.000       1.000       1.000       1.000       1.000       1.000    
        1.000       1.000       1.000       1.000       1.000       1.000       1.000       1.000       1.000       1.000    
        1.000       1.000       1.000       1.000       1.000       1.000       1.000       1.000       1.000       1.000    
        0.000       0.000       0.000       0.000       0.000       0.000       0.000       0.000       0.000       0.000    
        0.000       0.000       0.000       0.000       0.000       0.000       0.000       0.000       0.000       0.000    
        0.000       0.000       0.000       0.000       0.000       0.000       0.000       0.000       0.000       0.000    
        0.000       0.000       0.000       0.000       0.000       1.000    
 110    1.000       1.000       1.000       1.000       1.000       1.000       0.000       0.000       1.000       1.000    
        1.000       1.000       1.000       1.000       1.000       1.000       1.000       1.000       1.000       1.000    
        1.000       1.000       1.000       1.000       1.000       1.000       1.000       1.000       1.000       1.000    
        1.000       1.000       1.000       1.000       1.000       1.000       1.000       1.000       1.000       1.000    
        0.000       0.000       0.000       0.000       0.000       0.000       0.000       0.000       0.000       0.000    
        0.000       0.000       0.000       0.000       0.000       0.000       0.000       0.000       0.000       0.000    
        0.000       0.000       0.000       0.000       0.000       0.000       0.000       0.000       0.000       0.000    
        0.000       0.000       0.000       0.000       0.000       0.000    
 111    1.000       1.000       1.000       1.000       1.000       1.000       0.000       1.000       1.000       1.000    
        1.000       1.000       1.000       1.000       1.000       1.000       1.000       1.000       1.000       1.000    
        1.000       1.000       1.000       1.000       1.000       1.000       1.000       1.000       1.000       1.000    
        1.000       1.000       1.000       1.000       1.000       1.000       1.000       1.000       1.000       0.000    
        0.000       0.000       0.000       0.000       0.000       0.000       0.000       0.000       0.000       0.000    
        0.000       0.000       0.000       0.000       0.000       0.000       0.000       0.000       0.000       0.000    
        0.000       0.000       0.000       0.000       0.000       0.000       0.000       0.000       0.000       0.000    
        0.000       0.000       0.000       0.000       0.000       0.000    
 112    1.000       1.000       1.000       1.000       1.000       1.000       0.000       1.000       1.000       1.000    
        1.000       1.000       1.000       1.000       1.000       1.000       1.000       1.000       1.000       1.000    
        1.000       1.000       1.000       1.000       1.000       1.000       1.000       1.000       1.000       1.000    
        1.000       1.000       1.000       1.000       1.000       1.000       1.000       1.000       1.000       0.000    
        0.000       0.000       0.000       0.000       0.000       0.000       0.000       0.000       0.000       0.000    
        0.000       0.000       0.000       0.000       0.000       0.000       0.000       0.000       0.000       0.000    
        0.000       0.000       0.000       0.000       0.000       0.000       0.000       0.000       0.000       0.000    
        0.000       0.000       0.000       0.000       0.000       0.000    
 113    1.000       1.000       1.000       1.000       1.000       0.000       0.000       1.000       1.000       1.000    
        1.000       1.000       1.000       1.000       1.000       1.000       1.000       1.000       1.000       1.000    
        1.000       1.000       1.000       1.000       1.000       1.000       1.000       1.000       1.000       1.000    
        1.000       1.000       1.000       1.000       1.000       1.000       1.000       1.000       0.000       0.000    
        0.000       0.000       0.000       0.000       0.000       0.000       0.000       0.000       0.000       0.000    
        0.000       0.000       0.000       0.000       0.000       0.000       0.000       0.000       0.000       0.000    
        0.000       0.000       0.000       0.000       0.000       0.000       0.000       0.000       0.000       0.000    
        0.000       0.000       0.000       0.000       0.000       0.000    
 114    1.000       1.000       1.000       1.000       1.000       0.000       1.000       1.000       1.000       1.000    
        1.000       1.000       1.000       1.000       1.000       1.000       1.000       1.000       1.000       1.000    
        1.000       1.000       1.000       1.000       1.000       1.000       1.000       1.000       1.000       1.000    
        1.000       1.000       1.000       1.000       1.000       1.000       1.000       1.000       0.000       0.000    
        0.000       0.000       0.000       0.000       0.000       0.000       0.000       0.000       0.000       0.000    
        0.000       0.000       0.000       0.000       0.000       0.000       0.000       0.000       0.000       0.000    
        0.000       0.000       0.000       0.000       0.000       0.000       0.000       0.000       0.000       0.000    
        0.000       0.000       0.000       0.000       0.000       0.000    
 115    1.000       1.000       1.000       1.000       1.000       0.000       1.000       1.000       1.000       1.000    
        1.000       1.000       1.000       1.000       1.000       1.000       1.000       1.000       1.000       1.000    
        1.000       1.000       1.000       1.000       1.000       1.000       1.000       1.000       1.000       1.000    
        1.000       1.000       1.000       1.000       1.000       1.000       1.000       1.000       1.000       0.000    
        0.000       0.000       0.000       0.000       0.000       0.000       0.000       0.000       0.000       0.000    
        0.000       0.000       0.000       0.000       0.000       0.000       0.000       0.000       0.000       0.000    
        0.000       0.000       0.000       0.000       0.000       0.000       0.000       0.000       0.000       0.000    
        0.000       0.000       0.000       0.000       0.000       0.000    
 116    1.000       1.000       1.000       1.000       0.000       0.000       1.000       1.000       1.000       1.000    
        1.000       1.000       1.000       1.000       1.000       1.000       1.000       1.000       1.000       1.000    
        1.000       1.000       1.000       1.000       1.000       1.000       1.000       1.000       1.000       1.000    
        1.000       1.000       1.000       1.000       1.000       1.000       1.000       1.000       1.000       0.000    
        0.000       0.000       0.000       0.000       0.000       0.000       0.000       0.000       0.000       0.000    
        0.000       0.000       0.000       0.000       0.000       0.000       0.000       0.000       0.000       0.000    
        0.000       0.000       0.000       0.000       0.000       0.000       0.000       0.000       0.000       0.000    
        0.000       0.000       0.000       0.000       0.000       0.000    
 117    1.000       1.000       1.000       1.000       0.000       1.000       1.000       1.000       1.000       1.000    
        1.000       1.000       1.000       1.000       1.000       1.000       1.000       1.000       1.000       1.000    
        1.000       1.000       1.000       1.000       1.000       1.000       1.000       1.000       1.000       1.000    
        1.000       1.000       1.000       1.000       1.000       1.000       1.000       1.000       1.000       1.000    
        0.000       0.000       0.000       0.000       0.000       0.000       0.000       0.000       0.000       0.000    
        0.000       0.000       0.000       0.000       0.000       0.000       0.000       0.000       0.000       0.000    
        0.000       0.000       0.000       0.000       0.000       0.000       0.000       0.000       0.000       0.000    
        0.000       0.000       0.000       0.000       0.000       0.000    
 118    1.000       1.000       1.000       1.000       0.000       1.000       1.000       1.000       1.000       1.000    
        1.000       1.000       1.000       1.000       1.000       1.000       1.000       1.000       1.000       1.000    
        1.000       1.000       1.000       1.000       1.000       1.000       1.000       1.000       1.000       1.000    
        1.000       1.000       1.000       1.000       1.000       1.000       1.000       1.000       1.000       1.000    
        0.000       0.000       0.000       0.000       0.000       0.000       0.000       0.000       0.000       0.000    
        0.000       0.000       0.000       0.000       0.000       0.000       0.000       0.000       0.000       0.000    
        0.000       0.000       0.000       0.000       0.000       0.000       0.000       0.000       0.000       0.000    
        0.000       0.000       0.000       0.000       0.000       0.000    
 119    1.000       1.000       1.000       1.000       0.000       1.000       1.000       1.000       1.000       1.000    
        1.000       1.000       1.000       1.000       1.000       1.000       1.000       1.000       1.000       1.000    
        1.000       1.000       1.000       1.000       1.000       1.000       1.000       1.000       1.000       1.000    
        1.000       1.000       1.000       1.000       1.000       1.000       1.000       1.000       1.000       1.000    
        1.000       0.000       0.000       0.000       0.000       0.000       0.000       0.000       0.000       0.000    
        0.000       0.000       0.000       0.000       0.000       0.000       0.000       0.000       0.000       0.000    
        0.000       0.000       0.000       0.000       0.000       0.000       0.000       0.000       0.000       0.000    
        0.000       0.000       0.000       0.000       0.000       0.000    
 120    1.000       1.000       1.000       0.000       1.000       1.000       1.000       1.000       1.000       1.000    
        1.000       1.000       1.000       1.000       1.000       1.000       1.000       1.000       1.000       1.000    
        1.000       1.000       1.000       1.000       1.000       1.000       1.000       1.000       1.000       1.000    
        1.000       1.000       1.000       1.000       1.000       1.000       1.000       1.000       1.000       1.000    
        1.000       0.000       0.000       0.000       0.000       0.000       0.000       0.000       0.000       0.000    
        0.000       0.000       0.000       0.000       0.000       0.000       0.000       0.000       0.000       0.000    
        0.000       0.000       0.000       0.000       0.000       0.000       0.000       0.000       0.000       0.000    
        0.000       0.000       0.000       0.000       0.000       0.000    
 121    1.000       1.000       1.000       0.000       1.000       1.000       1.000       1.000       1.000       1.000    
        1.000       1.000       1.000       1.000       1.000       1.000       1.000       1.000       1.000       1.000    
        1.000       1.000       1.000       1.000       1.000       1.000       1.000       1.000       1.000       1.000    
        1.000       1.000       1.000       1.000       1.000       1.000       1.000       1.000       1.000       1.000    
        1.000       1.000       0.000       0.000       0.000       0.000       0.000       0.000       0.000       0.000    
        0.000       0.000       0.000       0.000       0.000       0.000       0.000       0.000       0.000       0.000    
        0.000       0.000       0.000       0.000       0.000       0.000       0.000       0.000       0.000       0.000    
        0.000       0.000       0.000       0.000       0.000       0.000    
 122    1.000       1.000       1.000       0.000       1.000       1.000       1.000       1.000       1.000       1.000    
        1.000       1.000       1.000       1.000       1.000       1.000       1.000       1.000       1.000       1.000    
        1.000       1.000       1.000       1.000       1.000       1.000       1.000       1.000       1.000       1.000    
        1.000       1.000       1.000       1.000       1.000       1.000       1.000       1.000       1.000       1.000    
        1.000       1.000       1.000       0.000       0.000       0.000       0.000       0.000       0.000       0.000    
        0.000       0.000       0.000       0.000       0.000       0.000       0.000       0.000       0.000       0.000    
        0.000       0.000       0.000       0.000       0.000       0.000       0.000       0.000       0.000       0.000    
        0.000       0.000       0.000       0.000       0.000       0.000    
 123    1.000       1.000       0.000       1.000       1.000       1.000       1.000       1.000       1.000       1.000    
        1.000       1.000       1.000       1.000       1.000       1.000       1.000       1.000       1.000       1.000    
        1.000       1.000       1.000       1.000       1.000       1.000       1.000       1.000       1.000       1.000    
        1.000       1.000       1.000       1.000       1.000       1.000       1.000       1.000       1.000       1.000    
        1.000       1.000       1.000       0.000       0.000       0.000       0.000       0.000       0.000       0.000    
        0.000       0.000       0.000       0.000       0.000       0.000       0.000       0.000       0.000       0.000    
        0.000       0.000       0.000       0.000       0.000       0.000       0.000       0.000       0.000       0.000    
        0.000       0.000       0.000       0.000       0.000       0.000    
 124    1.000       1.000       0.000       1.000       1.000       1.000       1.000       1.000       1.000       1.000    
        1.000       1.000       1.000       1.000       1.000       1.000       1.000       1.000       1.000       1.000    
        1.000       1.000       1.000       1.000       1.000       1.000       1.000       1.000       1.000       1.000    
        1.000       1.000       1.000       1.000       1.000       1.000       1.000       1.000       1.000       1.000    
        1.000       1.000       1.000       1.000       0.000       0.000       0.000       0.000       0.000       0.000    
        0.000       0.000       0.000       0.000       0.000       0.000       0.000       0.000       0.000       0.000    
        0.000       0.000       0.000       0.000       0.000       0.000       0.000       0.000       0.000       0.000    
        0.000       0.000       0.000       0.000       0.000       0.000    
 125    1.000       1.000       1.000       1.000       1.000       1.000       1.000       1.000       1.000       1.000    
        1.000       1.000       1.000       1.000       1.000       1.000       1.000       1.000       1.000       1.000    
        1.000       1.000       1.000       1.000       1.000       1.000       1.000       1.000       1.000       1.000    
        1.000       1.000       1.000       1.000       1.000       1.000       1.000       1.000       1.000       1.000    
        1.000       1.000       1.000       1.000       1.000       0.000       0.000       0.000       0.000       0.000    
        0.000       0.000       0.000       0.000       0.000       0.000       0.000       0.000       0.000       0.000    
        0.000       0.000       0.000       0.000       0.000       0.000       0.000       0.000       0.000       0.000    
        0.000       0.000       0.000       0.000       0.000       0.000    
 126    1.000       1.000       1.000       1.000       1.000       1.000       1.000       1.000       1.000       1.000    
        1.000       1.000       1.000       1.000       1.000       1.000       1.000       1.000       1.000       1.000    
        1.000       1.000       1.000       1.000       1.000       1.000       1.000       1.000       1.000       1.000    
        1.000       1.000       1.000       1.000       1.000       1.000       1.000       1.000       1.000       1.000    
        1.000       1.000       1.000       1.000       1.000       0.000       0.000       0.000       0.000       0.000    
        0.000       0.000       0.000       0.000       0.000       0.000       0.000       0.000       0.000       0.000    
        0.000       0.000       0.000       0.000       0.000       0.000       0.000       0.000       0.000       0.000    
        0.000       0.000       0.000       0.000       0.000       0.000    
 127    1.000       1.000       1.000       1.000       1.000       1.000       1.000       1.000       1.000       1.000    
        1.000       1.000       1.000       1.000       1.000       1.000       1.000       1.000       1.000       1.000    
        1.000       1.000       1.000       1.000       1.000       1.000       1.000       1.000       1.000       1.000    
        1.000       1.000       1.000       1.000       1.000       1.000       1.000       1.000       1.000       1.000    
        1.000       1.000       1.000       1.000       1.000       1.000       0.000       0.000       0.000       0.000    
        0.000       0.000       0.000       0.000       0.000       0.000       0.000       0.000       0.000       0.000    
        0.000       0.000       0.000       0.000       0.000       0.000       0.000       0.000       0.000       0.000    
        0.000       0.000       0.000       0.000       0.000       0.000    
 128    1.000       1.000       1.000       1.000       1.000       1.000       1.000       1.000       1.000       1.000    
        1.000       1.000       1.000       1.000       1.000       1.000       1.000       1.000       1.000       1.000    
        1.000       1.000       1.000       1.000       1.000       1.000       1.000       1.000       1.000       1.000    
        1.000       1.000       1.000       1.000       1.000       1.000       1.000       1.000       1.000       1.000    
        1.000       1.000       1.000       1.000       1.000       1.000       1.000       0.000       0.000       0.000    
        0.000       0.000       0.000       0.000       0.000       0.000       0.000       0.000       0.000       0.000    
        0.000       0.000       0.000       0.000       0.000       0.000       0.000       0.000       0.000       0.000    
        0.000       0.000       0.000       0.000       0.000       0.000    
 129    1.000       1.000       1.000       1.000       1.000       1.000       1.000       1.000       1.000       1.000    
        1.000       1.000       1.000       1.000       1.000       1.000       1.000       1.000       1.000       1.000    
        1.000       1.000       1.000       1.000       1.000       1.000       1.000       1.000       1.000       1.000    
        1.000       1.000       1.000       1.000       1.000       1.000       1.000       1.000       1.000       1.000    
        1.000       1.000       1.000       1.000       1.000       1.000       1.000       1.000       0.000       0.000    
        0.000       0.000       0.000       0.000       0.000       0.000       0.000       0.000       0.000       0.000    
        0.000       0.000       0.000       0.000       0.000       0.000       0.000       0.000       0.000       0.000    
        0.000       0.000       0.000       0.000       0.000       0.000    
 130    1.000       1.000       1.000       1.000       1.000       1.000       1.000       1.000       1.000       1.000    
        1.000       1.000       1.000       1.000       1.000       1.000       1.000       1.000       1.000       1.000    
        1.000       1.000       1.000       1.000       1.000       1.000       1.000       1.000       1.000       1.000    
        1.000       1.000       1.000       1.000       1.000       1.000       1.000       1.000       1.000       1.000    
        1.000       1.000       1.000       1.000       1.000       1.000       1.000       1.000       1.000       0.000    
        0.000       0.000       0.000       0.000       0.000       0.000       0.000       0.000       0.000       0.000    
        0.000       0.000       0.000       0.000       0.000       0.000       0.000       0.000       0.000       0.000    
        0.000       0.000       0.000       0.000       0.000       0.000    
 131    1.000       1.000       1.000       1.000       1.000       1.000       1.000       1.000       1.000       1.000    
        1.000       0.000       0.000       0.000       0.000       0.000       0.000       1.000       1.000       1.000    
        1.000       1.000       1.000       1.000       1.000       1.000       1.000       1.000       1.000       1.000    
        1.000       1.000       1.000       1.000       1.000       1.000       1.000       1.000       1.000       1.000    
        0.000       0.000       0.000       0.000       0.000       1.000       1.000       1.000       1.000       0.000    
        0.000       0.000       0.000       0.000       0.000       0.000       0.000       0.000       0.000       0.000    
        0.000       0.000       0.000       0.000       0.000       0.000       0.000       0.000       0.000       0.000    
        0.000       0.000       0.000       0.000       0.000       0.000    

 RIV -- RIVER PACKAGE, VERSION 7, 5/2/2005 INPUT READ FROM UNIT 5021
 # RIV: River package file created on 1/26/2022 by ModelMuse version 4.3.0.0.
 No named parameters
 MAXIMUM OF    706 ACTIVE RIVER REACHES AT ONE TIME
 CELL-BY-CELL FLOWS WILL BE SAVED ON UNIT    9
 AUXILIARY RIVER VARIABLE: IFACE           


     0 River parameters

 RCH -- RECHARGE PACKAGE, VERSION 7, 5/2/2005 INPUT READ FROM UNIT 5024
 # RCH: Recharge package file created on 1/26/2022 by ModelMuse version 4.3.0.0.
 No named parameters
 OPTION 3 -- RECHARGE TO HIGHEST ACTIVE NODE IN EACH VERTICAL COLUMN
 CELL-BY-CELL FLOWS WILL BE SAVED ON UNIT    9


     0 Recharge parameters
1
                            STRESS PERIOD NO.    1, LENGTH =   15000.00    
                            -----------------------------------------------

                              NUMBER OF TIME STEPS = 15000

                               MULTIPLIER FOR DELT =     1.000

                            INITIAL TIME STEP SIZE =   1.000000    

 REACH NO.  LAYER   ROW   COL     STAGE      CONDUCTANCE     BOTTOM EL.         IFACE           
 -----------------------------------------------------------------------------------------------
      1      1      6     73       3398.          0.2274E+05       3397.           0.000    
      2      1      7     73       3334.          0.2524E+05       3333.           0.000    
      3      1      8     73       3311.          0.2362E+05       3310.           0.000    
      4      1      9     63       3206.          0.1229E+05       3205.           0.000    
      5      1      9     72       3189.          0.1683E+05       3189.           0.000    
      6      1      9     73       3354.          0.1252E+05       3353.           0.000    
      7      1     10     58       3175.           207.5           3174.           0.000    
      8      1     10     62       3224.          0.1479E+05       3224.           0.000    
      9      1     10     63       3330.           1482.           3329.           0.000    
     10      1     10     72       3079.          0.2573E+05       3078.           0.000    
     11      1     11     58       3157.          0.1631E+05       3156.           0.000    
     12      1     11     62       3136.          0.1580E+05       3135.           0.000    
     13      1     11     71       3134.          0.1120E+05       3133.           0.000    
     14      1     11     72       3076.          0.2065E+05       3075.           0.000    
     15      1     12     57       3176.           1393.           3175.           0.000    
     16      1     12     58       3157.          0.1560E+05       3156.           0.000    
     17      1     12     58       3157.          0.1560E+05       3156.           0.000    
     18      1     12     62       3094.          0.1741E+05       3093.           0.000    
     19      1     12     71       2991.          0.2643E+05       2990.           0.000    
     20      1     13     57       3213.           978.1           3213.           0.000    
     21      1     13     58       3155.          0.1526E+05       3155.           0.000    
     22      1     13     58       3155.          0.1526E+05       3155.           0.000    
     23      1     13     62       3045.          0.1748E+05       3044.           0.000    
     24      1     13     69       3314.           5489.           3313.           0.000    
     25      1     13     70       3022.          0.2955E+05       3021.           0.000    
     26      1     13     71       3189.           7773.           3188.           0.000    
     27      1     14     58       3023.          0.1807E+05       3022.           0.000    
     28      1     14     62       3035.          0.1770E+05       3035.           0.000    
     29      1     14     63       3178.           898.5           3177.           0.000    
     30      1     14     68       3130.           8842.           3129.           0.000    
     31      1     14     69       2989.          0.4178E+05       2988.           0.000    
     32      1     14     69       2989.          0.4178E+05       2988.           0.000    
     33      1     14     69       2989.          0.4178E+05       2988.           0.000    
     34      1     15     55       3217.           7984.           3216.           0.000    
     35      1     15     56       3020.          0.1876E+05       3020.           0.000    
     36      1     15     57       3032.          0.1725E+05       3032.           0.000    
     37      1     15     58       3011.          0.3125E+05       3010.           0.000    
     38      1     15     58       3011.          0.3125E+05       3010.           0.000    
     39      1     15     58       3011.          0.3125E+05       3010.           0.000    
     40      1     15     59       2947.          0.2956E+05       2946.           0.000    
     41      1     15     60       3031.          0.1863E+05       3030.           0.000    
     42      1     15     63       2966.          0.1633E+05       2965.           0.000    
     43      1     15     64       3013.           3692.           3012.           0.000    
     44      1     15     65       2928.          0.3720E+05       2927.           0.000    
     45      1     15     66       2953.          0.3433E+05       2952.           0.000    
     46      1     15     67       3036.          0.3281E+05       3035.           0.000    
     47      1     15     68       3118.          0.2628E+05       3117.           0.000    
     48      1     15     69       3114.          0.1292E+05       3114.           0.000    
     49      1     16     53       3202.          0.1002E+05       3201.           0.000    
     50      1     16     54       3104.          0.1673E+05       3104.           0.000    
     51      1     16     55       3115.          0.1032E+05       3114.           0.000    
     52      1     16     60       2970.          0.1972E+05       2969.           0.000    
     53      1     16     61       2951.          0.3042E+05       2950.           0.000    
     54      1     16     62       2901.           1599.           2901.           0.000    
     55      1     16     63       2845.          0.3967E+05       2845.           0.000    
     56      1     16     63       2845.          0.3967E+05       2845.           0.000    
     57      1     16     64       2962.          0.3037E+05       2961.           0.000    
     58      1     16     69       3351.           2751.           3351.           0.000    
     59      1     16     70       3164.          0.1062E+05       3163.           0.000    
     60      1     17     62       2835.          0.6310E+05       2834.           0.000    
     61      1     17     62       2835.          0.6310E+05       2834.           0.000    
     62      1     17     62       2835.          0.6310E+05       2834.           0.000    
     63      1     17     63       3007.          0.2700E+05       3006.           0.000    
     64      1     17     63       3007.          0.2700E+05       3006.           0.000    
     65      1     17     63       3007.          0.2700E+05       3006.           0.000    
     66      1     17     70       3223.           2224.           3222.           0.000    
     67      1     18     62       2880.          0.5270E+05       2879.           0.000    
     68      1     19     62       2955.          0.5618E+05       2953.           0.000    
     69      1     20     62       2958.          0.5845E+05       2957.           0.000    
     70      1     21     62       2950.          0.5907E+05       2949.           0.000    
     71      1     22     62       2947.          0.5536E+05       2946.           0.000    
     72      1     23     62       2938.          0.5495E+05       2936.           0.000    
     73      1     24     54       3112.          0.1398E+05       3111.           0.000    
     74      1     24     62       2908.          0.5453E+05       2907.           0.000    
     75      1     25     46       3076.           3943.           3075.           0.000    
     76      1     25     54       3052.          0.2500E+05       3052.           0.000    
     77      1     25     62       2855.          0.6057E+05       2853.           0.000    
     78      1     26     46       2969.          0.2269E+05       2969.           0.000    
     79      1     26     54       3001.          0.2762E+05       3000.           0.000    
     80      1     26     62       2882.          0.5709E+05       2881.           0.000    
     81      1     26     62       2882.          0.5709E+05       2881.           0.000    
     82      1     26     62       2882.          0.5709E+05       2881.           0.000    
     83      1     26     63       2891.          0.1982E+05       2890.           0.000    
     84      1     26     64       3054.          0.1387E+05       3054.           0.000    
     85      1     27     46       2966.          0.2313E+05       2965.           0.000    
     86      1     27     54       2990.          0.2668E+05       2989.           0.000    
     87      1     27     62       2824.          0.7121E+05       2822.           0.000    
     88      1     27     64       3144.           3398.           3143.           0.000    
     89      1     27     65       3043.          0.1574E+05       3042.           0.000    
     90      1     27     66       3054.          0.1716E+05       3053.           0.000    
     91      1     27     67       3146.           8943.           3145.           0.000    
     92      1     28     46       2923.          0.2396E+05       2922.           0.000    
     93      1     28     53       2997.          0.1368E+05       2996.           0.000    
     94      1     28     54       3033.          0.1173E+05       3032.           0.000    
     95      1     28     62       2872.          0.7428E+05       2870.           0.000    
     96      1     29     38       2917.          0.1023E+05       2916.           0.000    
     97      1     29     46       2923.          0.2138E+05       2922.           0.000    
     98      1     29     47       2944.           2972.           2943.           0.000    
     99      1     29     53       2992.          0.2067E+05       2991.           0.000    
    100      1     29     53       2992.          0.2067E+05       2991.           0.000    
    101      1     29     54       2991.           4678.           2990.           0.000    
    102      1     29     54       2991.           4678.           2990.           0.000    
    103      1     29     61       2993.           6181.           2992.           0.000    
    104      1     29     62       2938.          0.6257E+05       2936.           0.000    
    105      1     29     62       2938.          0.6257E+05       2936.           0.000    
    106      1     30     37       2938.          0.1062E+05       2937.           0.000    
    107      1     30     38       2949.           6381.           2948.           0.000    
    108      1     30     47       2796.          0.2477E+05       2795.           0.000    
    109      1     30     53       3000.          0.2341E+05       2999.           0.000    
    110      1     30     54       3075.           149.3           3074.           0.000    
    111      1     30     61       2877.          0.2715E+05       2875.           0.000    
    112      1     30     62       2884.          0.4811E+05       2882.           0.000    
    113      1     31     37       2867.          0.1307E+05       2866.           0.000    
    114      1     31     37       2867.          0.1307E+05       2866.           0.000    
    115      1     31     38       2911.           4050.           2911.           0.000    
    116      1     31     47       2812.          0.1602E+05       2812.           0.000    
    117      1     31     48       2779.          0.1197E+05       2778.           0.000    
    118      1     31     53       2900.          0.2640E+05       2899.           0.000    
    119      1     31     60       2779.          0.5116E+05       2778.           0.000    
    120      1     31     61       2744.          0.5536E+05       2742.           0.000    
    121      1     32     37       2864.           7427.           2863.           0.000    
    122      1     32     37       2864.           7427.           2863.           0.000    
    123      1     32     38       2847.           7561.           2846.           0.000    
    124      1     32     38       2847.           7561.           2846.           0.000    
    125      1     32     48       2694.          0.2793E+05       2693.           0.000    
    126      1     32     49       2704.           1883.           2703.           0.000    
    127      1     32     52       2934.          0.1091E+05       2933.           0.000    
    128      1     32     53       2939.          0.1529E+05       2938.           0.000    
    129      1     32     59       2863.          0.3335E+05       2861.           0.000    
    130      1     32     60       2764.          0.5038E+05       2762.           0.000    
    131      1     33     38       2766.          0.1746E+05       2765.           0.000    
    132      1     33     38       2766.          0.1746E+05       2765.           0.000    
    133      1     33     39       2802.          0.1222E+05       2801.           0.000    
    134      1     33     40       2837.          0.1059E+05       2836.           0.000    
    135      1     33     49       2643.          0.2987E+05       2643.           0.000    
    136      1     33     52       2866.          0.2463E+05       2865.           0.000    
    137      1     33     59       2700.          0.7772E+05       2698.           0.000    
    138      1     34     37       2753.          0.1967E+05       2753.           0.000    
    139      1     34     37       2753.          0.1967E+05       2753.           0.000    
    140      1     34     37       2753.          0.1967E+05       2753.           0.000    
    141      1     34     38       2791.          0.1607E+05       2790.           0.000    
    142      1     34     38       2791.          0.1607E+05       2790.           0.000    
    143      1     34     39       2860.           1772.           2860.           0.000    
    144      1     34     40       2866.           3976.           2865.           0.000    
    145      1     34     40       2866.           3976.           2865.           0.000    
    146      1     34     41       2869.           8117.           2868.           0.000    
    147      1     34     49       2573.          0.2281E+05       2572.           0.000    
    148      1     34     49       2573.          0.2281E+05       2572.           0.000    
    149      1     34     50       2672.           4938.           2671.           0.000    
    150      1     34     52       2817.          0.2505E+05       2816.           0.000    
    151      1     34     58       2657.          0.5526E+05       2655.           0.000    
    152      1     34     59       2801.          0.2234E+05       2800.           0.000    
    153      1     35     37       2764.          0.3818E+05       2763.           0.000    
    154      1     35     49       2512.          0.4193E+05       2511.           0.000    
    155      1     35     49       2512.          0.4193E+05       2511.           0.000    
    156      1     35     49       2512.          0.4193E+05       2511.           0.000    
    157      1     35     50       2629.          0.2607E+05       2628.           0.000    
    158      1     35     51       2690.          0.2572E+05       2689.           0.000    
    159      1     35     52       2769.          0.2293E+05       2769.           0.000    
    160      1     35     58       2591.          0.6623E+05       2590.           0.000    
    161      1     36     37       2761.          0.4268E+05       2760.           0.000    
    162      1     36     49       2593.          0.3858E+05       2592.           0.000    
    163      1     36     57       2657.          0.6059E+05       2655.           0.000    
    164      1     36     57       2657.          0.6059E+05       2655.           0.000    
    165      1     36     57       2657.          0.6059E+05       2655.           0.000    
    166      1     36     58       2644.          0.3084E+05       2642.           0.000    
    167      1     37     36       2723.          0.3862E+05       2721.           0.000    
    168      1     37     37       2814.           6046.           2813.           0.000    
    169      1     37     49       2606.          0.3746E+05       2605.           0.000    
    170      1     37     53       2580.          0.5873E+05       2579.           0.000    
    171      1     38     53       2700.          0.1951E+05       2698.           0.000    
    172      1     38     54       2779.           7615.           2777.           0.000    
    173      1     37     54       2571.          0.7477E+05       2570.           0.000    
    174      1     37     55       2611.          0.7509E+05       2609.           0.000    
    175      1     37     56       2619.          0.8022E+05       2618.           0.000    
    176      1     37     57       2609.          0.3907E+05       2608.           0.000    
    177      1     37     57       2609.          0.3907E+05       2608.           0.000    
    178      1     37     58       2706.          0.1479E+05       2705.           0.000    
    179      1     37     59       2990.           4064.           2990.           0.000    
    180      1     38     36       2733.          0.4662E+05       2731.           0.000    
    181      1     38     49       2658.          0.1253E+05       2657.           0.000    
    182      1     38     50       2547.          0.4436E+05       2546.           0.000    
    183      1     38     50       2547.          0.4436E+05       2546.           0.000    
    184      1     38     51       2570.          0.6632E+05       2568.           0.000    
    185      1     38     51       2570.          0.6632E+05       2568.           0.000    
    186      1     38     52       2478.          0.7857E+05       2477.           0.000    
    187      1     38     53       2700.          0.1951E+05       2698.           0.000    
    188      1     38     54       2779.           7615.           2777.           0.000    
    189      1     38     59       2903.          0.1219E+05       2903.           0.000    
    190      1     39     35       2675.          0.3969E+05       2673.           0.000    
    191      1     39     36       2796.           6267.           2795.           0.000    
    192      1     39     50       2438.          0.1105E+06       2436.           0.000    
    193      1     39     50       2438.          0.1105E+06       2436.           0.000    
    194      1     39     50       2438.          0.1105E+06       2436.           0.000    
    195      1     39     51       2628.          0.1469E+05       2626.           0.000    
    196      1     40     34       2720.          0.1766E+05       2719.           0.000    
    197      1     40     35       2649.          0.4548E+05       2647.           0.000    
    198      1     40     49       2476.          0.7709E+05       2474.           0.000    
    199      1     40     50       2621.          0.2725E+05       2619.           0.000    
    200      1     40     50       2621.          0.2725E+05       2619.           0.000    
    201      1     41     34       2676.          0.1803E+05       2674.           0.000    
    202      1     41     34       2676.          0.1803E+05       2674.           0.000    
    203      1     41     35       2694.          0.2577E+05       2693.           0.000    
    204      1     41     49       2517.          0.1934E+05       2515.           0.000    
    205      1     41     50       2538.          0.7875E+05       2536.           0.000    
    206      1     42     34       2679.          0.3283E+05       2678.           0.000    
    207      1     42     35       2691.           9462.           2690.           0.000    
    208      1     42     49       2362.          0.9696E+05       2360.           0.000    
    209      1     43     35       2595.          0.4136E+05       2593.           0.000    
    210      1     43     49       2393.          0.8259E+05       2391.           0.000    
    211      1     44     35       2551.          0.3829E+05       2550.           0.000    
    212      1     44     49       2386.          0.8844E+05       2384.           0.000    
    213      1     45     35       2513.          0.3912E+05       2512.           0.000    
    214      1     45     47       2537.           3654.           2536.           0.000    
    215      1     45     49       2379.          0.8876E+05       2377.           0.000    
    216      1     46     35       2495.          0.4223E+05       2494.           0.000    
    217      1     46     47       2490.          0.2187E+05       2490.           0.000    
    218      1     46     49       2402.          0.9768E+05       2400.           0.000    
    219      1     47     32       2650.           7432.           2649.           0.000    
    220      1     47     33       2604.          0.1972E+05       2603.           0.000    
    221      1     47     34       2598.          0.1737E+05       2597.           0.000    
    222      1     47     35       2501.          0.3938E+05       2500.           0.000    
    223      1     47     35       2501.          0.3938E+05       2500.           0.000    
    224      1     47     36       2433.          0.5132E+05       2432.           0.000    
    225      1     47     36       2433.          0.5132E+05       2432.           0.000    
    226      1     47     36       2433.          0.5132E+05       2432.           0.000    
    227      1     47     40       2681.           3061.           2680.           0.000    
    228      1     47     47       2420.          0.1806E+05       2419.           0.000    
    229      1     47     48       2401.          0.6448E+05       2399.           0.000    
    230      1     47     48       2401.          0.6448E+05       2399.           0.000    
    231      1     47     48       2401.          0.6448E+05       2399.           0.000    
    232      1     47     49       2390.          0.5112E+05       2388.           0.000    
    233      1     47     49       2390.          0.5112E+05       2388.           0.000    
    234      1     47     50       2701.           4663.           2701.           0.000    
    235      1     48     32       2670.           6276.           2669.           0.000    
    236      1     48     36       2571.           3754.           2570.           0.000    
    237      1     48     37       2412.          0.4854E+05       2411.           0.000    
    238      1     48     39       2637.           3985.           2636.           0.000    
    239      1     48     40       2590.          0.1065E+05       2590.           0.000    
    240      1     48     47       2382.          0.1834E+05       2381.           0.000    
    241      1     48     48       2325.          0.9264E+05       2323.           0.000    
    242      1     48     49       2489.           5120.           2488.           0.000    
    243      1     48     50       2667.          0.1048E+05       2666.           0.000    
    244      1     48     50       2667.          0.1048E+05       2666.           0.000    
    245      1     48     51       2788.          0.1632E+05       2788.           0.000    
    246      1     48     52       2893.          0.1286E+05       2892.           0.000    
    247      1     48     62       3425.          0.1604E+05       3423.           0.000    
    248      1     48     63       3283.          0.4596E+05       3282.           0.000    
    249      1     49     37       2433.          0.3947E+05       2432.           0.000    
    250      1     49     38       2418.          0.2863E+05       2416.           0.000    
    251      1     49     39       2457.          0.1474E+05       2456.           0.000    
    252      1     50     47       2257.          0.1357E+06       2255.           0.000    
    253      1     49     47       2310.          0.5609E+05       2309.           0.000    
    254      1     49     48       2308.          0.1118E+06       2306.           0.000    
    255      1     50     48       2333.           3708.           2331.           0.000    
    256      1     49     61       3284.          0.4447E+05       3283.           0.000    
    257      1     49     62       3308.          0.4841E+05       3307.           0.000    
    258      1     50     38       2407.          0.3491E+05       2406.           0.000    
    259      1     50     39       2348.          0.5557E+05       2347.           0.000    
    260      1     50     39       2348.          0.5557E+05       2347.           0.000    
    261      1     50     39       2348.          0.5557E+05       2347.           0.000    
    262      1     50     46       2266.          0.1294E+05       2265.           0.000    
    263      1     50     47       2257.          0.1357E+06       2255.           0.000    
    264      1     50     47       2257.          0.1357E+06       2255.           0.000    
    265      1     50     48       2333.           3708.           2331.           0.000    
    266      1     50     48       2333.           3708.           2331.           0.000    
    267      1     50     59       3047.          0.1428E+05       3046.           0.000    
    268      1     50     60       3063.          0.5542E+05       3062.           0.000    
    269      1     50     61       3308.           8200.           3307.           0.000    
    270      1     51     39       2377.          0.5135E+05       2375.           0.000    
    271      1     51     39       2377.          0.5135E+05       2375.           0.000    
    272      1     51     40       2406.          0.2388E+05       2404.           0.000    
    273      1     51     40       2406.          0.2388E+05       2404.           0.000    
    274      1     51     46       2229.          0.2220E+05       2228.           0.000    
    275      1     51     47       2244.          0.1350E+06       2242.           0.000    
    276      1     51     58       3012.           6025.           3011.           0.000    
    277      1     51     58       3012.           6025.           3011.           0.000    
    278      1     51     59       2928.          0.5863E+05       2927.           0.000    
    279      1     51     59       2928.          0.5863E+05       2927.           0.000    
    280      1     52     40       2308.          0.8023E+05       2307.           0.000    
    281      1     52     46       2181.          0.1826E+05       2181.           0.000    
    282      1     52     47       2218.          0.1097E+06       2216.           0.000    
    283      1     52     58       2834.          0.5513E+05       2832.           0.000    
    284      1     53     40       2319.          0.6810E+05       2318.           0.000    
    285      1     53     40       2319.          0.6810E+05       2318.           0.000    
    286      1     53     41       2371.           4916.           2369.           0.000    
    287      1     53     46       2127.          0.8574E+05       2125.           0.000    
    288      1     53     46       2127.          0.8574E+05       2125.           0.000    
    289      1     53     46       2127.          0.8574E+05       2125.           0.000    
    290      1     53     47       2131.          0.1192E+06       2129.           0.000    
    291      1     53     57       2809.           1963.           2807.           0.000    
    292      1     53     58       2801.          0.5050E+05       2800.           0.000    
    293      1     54     40       2380.          0.1193E+05       2379.           0.000    
    294      1     54     41       2301.          0.5573E+05       2299.           0.000    
    295      1     54     46       2078.          0.1133E+06       2076.           0.000    
    296      1     54     57       2676.          0.5509E+05       2675.           0.000    
    297      1     55     41       2233.          0.5841E+05       2231.           0.000    
    298      1     55     46       2055.          0.9688E+05       2052.           0.000    
    299      1     55     56       2649.          0.3116E+05       2648.           0.000    
    300      1     55     57       2664.          0.2155E+05       2662.           0.000    
    301      1     56     41       2207.          0.5609E+05       2206.           0.000    
    302      1     56     45       2086.          0.7604E+05       2084.           0.000    
    303      1     56     46       2043.          0.1978E+05       2041.           0.000    
    304      1     56     56       2568.          0.4627E+05       2566.           0.000    
    305      1     57     41       2192.          0.6317E+05       2191.           0.000    
    306      1     57     42       2186.           5582.           2185.           0.000    
    307      1     57     45       2035.          0.1053E+06       2033.           0.000    
    308      1     57     46       2037.           5846.           2037.           0.000    
    309      1     57     56       2538.          0.4458E+05       2537.           0.000    
    310      1     58     31       2664.          0.1811E+05       2664.           0.000    
    311      1     58     41       2196.           6505.           2195.           0.000    
    312      1     58     42       2049.          0.6611E+05       2048.           0.000    
    313      1     58     42       2049.          0.6611E+05       2048.           0.000    
    314      1     58     44       2024.          0.6337E+05       2021.           0.000    
    315      1     58     44       2024.          0.6337E+05       2021.           0.000    
    316      1     58     45       2027.          0.1227E+06       2026.           0.000    
    317      1     58     45       2027.          0.1227E+06       2026.           0.000    
    318      1     58     45       2027.          0.1227E+06       2026.           0.000    
    319      1     58     45       2027.          0.1227E+06       2026.           0.000    
    320      1     58     45       2027.          0.1227E+06       2026.           0.000    
    321      1     58     46       2147.          0.1049E+05       2146.           0.000    
    322      1     58     56       2546.          0.4557E+05       2545.           0.000    
    323      1     59     31       2721.           3344.           2720.           0.000    
    324      1     59     32       2605.          0.2374E+05       2604.           0.000    
    325      1     59     42       2020.          0.1190E+05       2018.           0.000    
    326      1     59     43       2015.          0.1871E+06       2013.           0.000    
    327      1     59     43       2015.          0.1871E+06       2013.           0.000    
    328      1     59     43       2015.          0.1871E+06       2013.           0.000    
    329      1     59     44       2024.          0.6078E+05       2022.           0.000    
    330      1     59     45       2147.           3865.           2146.           0.000    
    331      1     59     56       2591.          0.2829E+05       2590.           0.000    
    332      1     59     57       2581.          0.1580E+05       2579.           0.000    
    333      1     60     32       2564.          0.2492E+05       2563.           0.000    
    334      1     60     42       2010.           2378.           2008.           0.000    
    335      1     60     43       2012.          0.1643E+06       2010.           0.000    
    336      1     60     57       2507.          0.4261E+05       2505.           0.000    
    337      1     61     32       2545.          0.2332E+05       2544.           0.000    
    338      1     61     42       2005.          0.1430E+06       2003.           0.000    
    339      1     61     57       2509.          0.4064E+05       2508.           0.000    
    340      1     62     32       2564.           6304.           2563.           0.000    
    341      1     62     33       2460.          0.2103E+05       2459.           0.000    
    342      1     62     41       2002.          0.1823E+05       1999.           0.000    
    343      1     62     42       2066.          0.1220E+06       2063.           0.000    
    344      1     62     57       2506.          0.4015E+05       2504.           0.000    
    345      1     63     33       2444.          0.2262E+05       2443.           0.000    
    346      1     63     41       2006.          0.1418E+06       2003.           0.000    
    347      1     63     57       2534.          0.4360E+05       2533.           0.000    
    348      1     64     33       2418.          0.2384E+05       2417.           0.000    
    349      1     65     33       2334.          0.2232E+05       2333.           0.000    
    350      1     64     41       2034.          0.1196E+06       2031.           0.000    
    351      1     64     57       2493.          0.4528E+05       2492.           0.000    
    352      1     65     33       2334.          0.2232E+05       2333.           0.000    
    353      1     65     34       2372.           2768.           2371.           0.000    
    354      1     65     41       2109.          0.1135E+06       2107.           0.000    
    355      1     65     56       2535.          0.2036E+05       2534.           0.000    
    356      1     65     57       2546.          0.2858E+05       2544.           0.000    
    357      1     66     28       2351.           9972.           2350.           0.000    
    358      1     66     29       2360.           1713.           2360.           0.000    
    359      1     66     34       2240.          0.3166E+05       2239.           0.000    
    360      1     66     35       2278.           4242.           2278.           0.000    
    361      1     66     40       2000.          0.1028E+06       1998.           0.000    
    362      1     66     41       2182.          0.1769E+05       2180.           0.000    
    363      1     66     55       2434.           9322.           2433.           0.000    
    364      1     66     56       2429.          0.5816E+05       2428.           0.000    
    365      1     67     28       2289.          0.2240E+05       2288.           0.000    
    366      1     67     29       2309.           910.1           2308.           0.000    
    367      1     67     35       2202.          0.2653E+05       2201.           0.000    
    368      1     67     36       2184.           3989.           2183.           0.000    
    369      1     67     40       2000.          0.1121E+06       1997.           0.000    
    370      1     67     53       2372.           6586.           2371.           0.000    
    371      1     67     54       2367.          0.4730E+05       2366.           0.000    
    372      1     67     55       2405.          0.4364E+05       2403.           0.000    
    373      1     68     28       2258.          0.2559E+05       2258.           0.000    
    374      1     68     36       2119.          0.2565E+05       2118.           0.000    
    375      1     68     40       2002.          0.1121E+06       1999.           0.000    
    376      1     68     51       2323.          0.3803E+05       2321.           0.000    
    377      1     68     52       2358.          0.5000E+05       2357.           0.000    
    378      1     68     53       2367.          0.4420E+05       2365.           0.000    
    379      1     69     28       2350.           4218.           2350.           0.000    
    380      1     69     29       2245.          0.2303E+05       2244.           0.000    
    381      1     69     36       2124.          0.2237E+05       2123.           0.000    
    382      1     69     39       2225.           7135.           2223.           0.000    
    383      1     69     40       2000.          0.1477E+06       1998.           0.000    
    384      1     69     47       2307.          0.1288E+05       2305.           0.000    
    385      1     69     48       2274.          0.4775E+05       2272.           0.000    
    386      1     69     49       2279.          0.4972E+05       2278.           0.000    
    387      1     69     50       2284.          0.4656E+05       2283.           0.000    
    388      1     69     51       2325.          0.2793E+05       2324.           0.000    
    389      1     70     29       2308.          0.1775E+05       2307.           0.000    
    390      1     70     30       2236.          0.2669E+05       2235.           0.000    
    391      1     71     30       2307.           2557.           2306.           0.000    
    392      1     70     36       2109.          0.1623E+05       2108.           0.000    
    393      1     70     36       2109.          0.1623E+05       2108.           0.000    
    394      1     70     37       2122.           9273.           2121.           0.000    
    395      1     70     37       2122.           9273.           2121.           0.000    
    396      1     70     38       2105.          0.3092E+05       2102.           0.000    
    397      1     70     39       2009.          0.1445E+06       2006.           0.000    
    398      1     70     46       2255.           6518.           2253.           0.000    
    399      1     70     47       2246.          0.5588E+05       2244.           0.000    
    400      1     71     30       2307.           2557.           2306.           0.000    
    401      1     71     31       2222.          0.2551E+05       2221.           0.000    
    402      1     71     32       2225.          0.1262E+05       2224.           0.000    
    403      1     71     37       2029.          0.2363E+05       2028.           0.000    
    404      1     71     38       2007.          0.1649E+06       2004.           0.000    
    405      1     71     45       2218.          0.1169E+05       2217.           0.000    
    406      1     71     46       2236.          0.5457E+05       2234.           0.000    
    407      1     72     30       2205.           7645.           2205.           0.000    
    408      1     72     31       2203.           8640.           2202.           0.000    
    409      1     72     31       2203.           8640.           2202.           0.000    
    410      1     72     32       2157.          0.2813E+05       2156.           0.000    
    411      1     72     32       2157.          0.2813E+05       2156.           0.000    
    412      1     72     32       2157.          0.2813E+05       2156.           0.000    
    413      1     72     37       2005.          0.1448E+06       2003.           0.000    
    414      1     72     37       2005.          0.1448E+06       2003.           0.000    
    415      1     72     37       2005.          0.1448E+06       2003.           0.000    
    416      1     72     38       2036.          0.5945E+05       2034.           0.000    
    417      1     72     44       2207.          0.2560E+05       2206.           0.000    
    418      1     72     45       2233.          0.4939E+05       2232.           0.000    
    419      1     73     31       2270.           4601.           2270.           0.000    
    420      1     73     32       2119.          0.4107E+05       2118.           0.000    
    421      1     73     36       2023.          0.9324E+05       2020.           0.000    
    422      1     73     37       2024.          0.1343E+06       2021.           0.000    
    423      1     73     44       2172.          0.4815E+05       2170.           0.000    
    424      1     74     32       2235.           6733.           2234.           0.000    
    425      1     74     33       2106.          0.3464E+05       2105.           0.000    
    426      1     74     34       2109.          0.3429E+05       2108.           0.000    
    427      1     74     35       2074.          0.3276E+05       2073.           0.000    
    428      1     74     36       1999.          0.1805E+06       1997.           0.000    
    429      1     74     36       1999.          0.1805E+06       1997.           0.000    
    430      1     74     36       1999.          0.1805E+06       1997.           0.000    
    431      1     74     44       2165.          0.5275E+05       2164.           0.000    
    432      1     75     36       2088.          0.1349E+06       2085.           0.000    
    433      1     75     37       2042.          0.2806E+05       2039.           0.000    
    434      1     75     44       2162.          0.4923E+05       2161.           0.000    
    435      1     75     44       2162.          0.4923E+05       2161.           0.000    
    436      1     75     45       2169.           4342.           2168.           0.000    
    437      1     75     45       2169.           4342.           2168.           0.000    
    438      1     76     37       2029.          0.1474E+06       2026.           0.000    
    439      1     76     45       2133.          0.5653E+05       2131.           0.000    
    440      1     77     37       1985.          0.1668E+06       1983.           0.000    
    441      1     77     45       2127.          0.4756E+05       2125.           0.000    
    442      1     77     46       2119.          0.2805E+05       2118.           0.000    
    443      1     77     46       2119.          0.2805E+05       2118.           0.000    
    444      1     78     37       1987.          0.1423E+06       1984.           0.000    
    445      1     78     46       2099.          0.4450E+05       2098.           0.000    
    446      1     78     46       2099.          0.4450E+05       2098.           0.000    
    447      1     78     46       2099.          0.4450E+05       2098.           0.000    
    448      1     79     33       2057.          0.1654E+05       2057.           0.000    
    449      1     80     34       2187.           2312.           2186.           0.000    
    450      1     79     34       2088.          0.1239E+05       2088.           0.000    
    451      1     79     37       1985.          0.1870E+06       1982.           0.000    
    452      1     79     46       2097.          0.4103E+05       2096.           0.000    
    453      1     79     47       2085.          0.2712E+05       2083.           0.000    
    454      1     80     47       2065.          0.5445E+05       2063.           0.000    
    455      1     80     34       2187.           2312.           2186.           0.000    
    456      1     80     34       2187.           2312.           2186.           0.000    
    457      1     80     35       2073.          0.1820E+05       2073.           0.000    
    458      1     80     36       2068.           6826.           2067.           0.000    
    459      1     80     37       2033.          0.2251E+05       2030.           0.000    
    460      1     80     38       1977.          0.1367E+06       1975.           0.000    
    461      1     80     47       2065.          0.5445E+05       2063.           0.000    
    462      1     80     47       2065.          0.5445E+05       2063.           0.000    
    463      1     81     36       2029.          0.1617E+05       2029.           0.000    
    464      1     81     38       1951.          0.1605E+06       1948.           0.000    
    465      1     81     47       2057.          0.5156E+05       2056.           0.000    
    466      1     82     35       1997.          0.1517E+05       1997.           0.000    
    467      1     82     36       2010.           840.1           2009.           0.000    
    468      1     82     37       1962.          0.8672E+05       1960.           0.000    
    469      1     82     38       1944.          0.2459E+06       1941.           0.000    
    470      1     82     47       2048.          0.6745E+05       2047.           0.000    
    471      1     83     47       2037.          0.6535E+05       2036.           0.000    
    472      1     83     35       1967.          0.1511E+06       1965.           0.000    
    473      1     83     35       1967.          0.1511E+06       1965.           0.000    
    474      1     83     35       1967.          0.1511E+06       1965.           0.000    
    475      1     83     36       1931.          0.1441E+06       1929.           0.000    
    476      1     83     37       1960.          0.6514E+05       1958.           0.000    
    477      1     83     47       2037.          0.6535E+05       2036.           0.000    
    478      1     84     35       1931.          0.1405E+06       1928.           0.000    
    479      1     84     47       2038.          0.5999E+05       2037.           0.000    
    480      1     85     35       1922.          0.1410E+06       1919.           0.000    
    481      1     85     36       1988.           2742.           1985.           0.000    
    482      1     85     46       2040.          0.3087E+05       2038.           0.000    
    483      1     85     46       2040.          0.3087E+05       2038.           0.000    
    484      1     85     47       2041.          0.2521E+05       2039.           0.000    
    485      1     85     47       2041.          0.2521E+05       2039.           0.000    
    486      1     86     35       1911.          0.1477E+06       1909.           0.000    
    487      1     86     36       1997.          0.1437E+05       1994.           0.000    
    488      1     86     46       2015.          0.6564E+05       2013.           0.000    
    489      1     87     34       1925.          0.9938E+05       1922.           0.000    
    490      1     87     35       1911.          0.9916E+05       1909.           0.000    
    491      1     87     45       2033.          0.1218E+05       2032.           0.000    
    492      1     87     46       2011.          0.4548E+05       2010.           0.000    
    493      1     87     49       2011.          0.2214E+05       2011.           0.000    
    494      1     88     33       1934.          0.3105E+05       1931.           0.000    
    495      1     88     34       1901.          0.1704E+06       1899.           0.000    
    496      1     88     45       1993.          0.6778E+05       1992.           0.000    
    497      1     88     47       2025.           2728.           2024.           0.000    
    498      1     89     47       1999.          0.2959E+05       1999.           0.000    
    499      1     88     48       2005.          0.2357E+05       2004.           0.000    
    500      1     88     49       2014.           9338.           2013.           0.000    
    501      1     89     33       1921.          0.2717E+05       1919.           0.000    
    502      1     89     34       1895.          0.1219E+06       1892.           0.000    
    503      1     89     42       1988.           1934.           1987.           0.000    
    504      1     89     44       1991.          0.3956E+05       1990.           0.000    
    505      1     89     45       1999.          0.4308E+05       1997.           0.000    
    506      1     89     46       2016.           6212.           2015.           0.000    
    507      1     89     47       1999.          0.2959E+05       1999.           0.000    
    508      1     90     33       1892.          0.1662E+06       1890.           0.000    
    509      1     90     33       1892.          0.1662E+06       1890.           0.000    
    510      1     90     33       1892.          0.1662E+06       1890.           0.000    
    511      1     90     34       1898.           4569.           1895.           0.000    
    512      1     90     38       1967.          0.1234E+05       1966.           0.000    
    513      1     90     39       1937.          0.6440E+05       1936.           0.000    
    514      1     90     40       1939.          0.9296E+05       1938.           0.000    
    515      1     90     41       1954.          0.8142E+05       1952.           0.000    
    516      1     90     41       1954.          0.8142E+05       1952.           0.000    
    517      1     90     41       1954.          0.8142E+05       1952.           0.000    
    518      1     90     42       1965.           5134.           1964.           0.000    
    519      1     90     43       1965.          0.6429E+05       1964.           0.000    
    520      1     90     43       1965.          0.6429E+05       1964.           0.000    
    521      1     90     43       1965.          0.6429E+05       1964.           0.000    
    522      1     90     44       1973.          0.4427E+05       1972.           0.000    
    523      1     90     44       1973.          0.4427E+05       1972.           0.000    
    524      1     90     45       1990.          0.2003E+05       1989.           0.000    
    525      1     90     46       1994.          0.1842E+05       1993.           0.000    
    526      1     91     33       1883.          0.1462E+06       1881.           0.000    
    527      1     91     37       1953.          0.2922E+05       1951.           0.000    
    528      1     91     38       1924.          0.7984E+05       1922.           0.000    
    529      1     91     41       1996.           1840.           1995.           0.000    
    530      1     91     42       1970.          0.5742E+05       1968.           0.000    
    531      1     91     43       1997.          0.2943E+05       1996.           0.000    
    532      1     91     43       1997.          0.2943E+05       1996.           0.000    
    533      1     91     44       1968.          0.1492E+05       1967.           0.000    
    534      1     92     33       1875.          0.1542E+06       1873.           0.000    
    535      1     92     37       1917.          0.7633E+05       1916.           0.000    
    536      1     93     33       1897.          0.7260E+05       1894.           0.000    
    537      1     93     34       1875.          0.1152E+06       1872.           0.000    
    538      1     93     36       1922.          0.6379E+05       1921.           0.000    
    539      1     93     37       1943.          0.1297E+05       1941.           0.000    
    540      1     94     34       1866.          0.1497E+06       1863.           0.000    
    541      1     94     36       1902.          0.6747E+05       1901.           0.000    
    542      1     95     34       1860.          0.1424E+06       1857.           0.000    
    543      1     95     36       1886.          0.8085E+05       1884.           0.000    
    544      1     96     34       1865.          0.1440E+06       1863.           0.000    
    545      1     96     35       1882.          0.6905E+05       1881.           0.000    
    546      1     96     36       1952.          0.1132E+05       1951.           0.000    
    547      1     97     34       1853.          0.1841E+06       1851.           0.000    
    548      1     98     34       1851.          0.2544E+06       1849.           0.000    
    549      1     97     35       1873.          0.7958E+05       1871.           0.000    
    550      1     98     33       1882.          0.5832E+05       1879.           0.000    
    551      1     98     34       1851.          0.2544E+06       1849.           0.000    
    552      1     98     34       1851.          0.2544E+06       1849.           0.000    
    553      1     98     34       1851.          0.2544E+06       1849.           0.000    
    554      1     98     35       1944.          0.1544E+05       1942.           0.000    
    555      1     99     34       1881.          0.1604E+06       1879.           0.000    
    556      1     99     34       1881.          0.1604E+06       1879.           0.000    
    557      1     99     34       1881.          0.1604E+06       1879.           0.000    
    558      1    100     34       1928.          0.1773E+06       1925.           0.000    
    559      1    101     30       1983.          0.1704E+05       1982.           0.000    
    560      1    101     33       1873.          0.1070E+06       1870.           0.000    
    561      1    101     34       1969.          0.7819E+05       1966.           0.000    
    562      1    101     34       1969.          0.7819E+05       1966.           0.000    
    563      1    102     29       1946.          0.1095E+05       1945.           0.000    
    564      1    102     29       1946.          0.1095E+05       1945.           0.000    
    565      1    102     29       1946.          0.1095E+05       1945.           0.000    
    566      1    102     30       1966.           6574.           1965.           0.000    
    567      1    102     30       1966.           6574.           1965.           0.000    
    568      1    102     30       1966.           6574.           1965.           0.000    
    569      1    102     33       1888.          0.7502E+05       1885.           0.000    
    570      1    102     34       1970.          0.8736E+05       1966.           0.000    
    571      1    102     34       1970.          0.8736E+05       1966.           0.000    
    572      1    103     29       1915.          0.1518E+05       1914.           0.000    
    573      1    103     29       1915.          0.1518E+05       1914.           0.000    
    574      1    103     30       1937.           1053.           1936.           0.000    
    575      1    103     33       1910.           9228.           1907.           0.000    
    576      1    103     34       1902.          0.1634E+06       1899.           0.000    
    577      1    103     34       1902.          0.1634E+06       1899.           0.000    
    578      1    103     36       1945.          0.1289E+05       1944.           0.000    
    579      1    104     29       1948.           5650.           1947.           0.000    
    580      1    104     30       1926.          0.1102E+05       1925.           0.000    
    581      1    104     34       1860.          0.1340E+06       1858.           0.000    
    582      1    104     34       1860.          0.1340E+06       1858.           0.000    
    583      1    104     35       1910.          0.1607E+05       1909.           0.000    
    584      1    104     36       1976.           1740.           1975.           0.000    
    585      1    105     30       1912.          0.1732E+05       1911.           0.000    
    586      1    105     34       1870.          0.1701E+06       1867.           0.000    
    587      1    105     34       1870.          0.1701E+06       1867.           0.000    
    588      1    105     34       1870.          0.1701E+06       1867.           0.000    
    589      1    106     28       1887.           9647.           1886.           0.000    
    590      1    107     28       1879.           7426.           1878.           0.000    
    591      1    106     30       1882.          0.1739E+05       1882.           0.000    
    592      1    106     33       1822.          0.1803E+06       1819.           0.000    
    593      1    106     34       1905.          0.3523E+05       1902.           0.000    
    594      1    107     28       1879.           7426.           1878.           0.000    
    595      1    107     29       1853.          0.1266E+05       1852.           0.000    
    596      1    107     30       1871.          0.1707E+05       1871.           0.000    
    597      1    107     33       1812.          0.1943E+06       1809.           0.000    
    598      1    108     29       1845.           3776.           1844.           0.000    
    599      1    108     30       1859.          0.2298E+05       1859.           0.000    
    600      1    108     30       1859.          0.2298E+05       1859.           0.000    
    601      1    108     30       1859.          0.2298E+05       1859.           0.000    
    602      1    108     32       1817.          0.1961E+06       1814.           0.000    
    603      1    108     33       1846.          0.1854E+06       1843.           0.000    
    604      1    109     29       1841.           763.8           1841.           0.000    
    605      1    109     30       1838.          0.2620E+05       1838.           0.000    
    606      1    109     30       1838.          0.2620E+05       1838.           0.000    
    607      1    109     32       1803.          0.2080E+06       1800.           0.000    
    608      1    110     30       1821.          0.2945E+05       1820.           0.000    
    609      1    110     32       1799.          0.1763E+06       1796.           0.000    
    610      1    110     34       1935.           3367.           1934.           0.000    
    611      1    110     34       1935.           3367.           1934.           0.000    
    612      1    110     34       1935.           3367.           1934.           0.000    
    613      1    110     35       1920.          0.1461E+05       1919.           0.000    
    614      1    110     36       1930.           7177.           1930.           0.000    
    615      1    111     29       1825.          0.1216E+06       1822.           0.000    
    616      1    111     30       1794.          0.2197E+06       1792.           0.000    
    617      1    111     30       1794.          0.2197E+06       1792.           0.000    
    618      1    111     30       1794.          0.2197E+06       1792.           0.000    
    619      1    111     31       1792.          0.4538E+05       1789.           0.000    
    620      1    111     32       1801.          0.1763E+06       1798.           0.000    
    621      1    111     33       1837.          0.1853E+05       1836.           0.000    
    622      1    111     34       1878.          0.1225E+05       1877.           0.000    
    623      1    111     34       1878.          0.1225E+05       1877.           0.000    
    624      1    111     34       1878.          0.1225E+05       1877.           0.000    
    625      1    112     29       1780.          0.1847E+06       1777.           0.000    
    626      1    112     31       1804.          0.1486E+06       1802.           0.000    
    627      1    112     31       1804.          0.1486E+06       1802.           0.000    
    628      1    112     31       1804.          0.1486E+06       1802.           0.000    
    629      1    112     32       1821.          0.1569E+06       1819.           0.000    
    630      1    112     32       1821.          0.1569E+06       1819.           0.000    
    631      1    112     33       1833.           424.3           1833.           0.000    
    632      1    113     25       1792.           8964.           1792.           0.000    
    633      1    113     28       1776.          0.4911E+05       1773.           0.000    
    634      1    113     29       1776.          0.1532E+06       1773.           0.000    
    635      1    114     25       1792.           6311.           1791.           0.000    
    636      1    114     25       1792.           6311.           1791.           0.000    
    637      1    114     26       1788.           6689.           1787.           0.000    
    638      1    114     26       1788.           6689.           1787.           0.000    
    639      1    114     27       1779.          0.9916E+05       1776.           0.000    
    640      1    114     28       1764.          0.2835E+06       1761.           0.000    
    641      1    114     28       1764.          0.2835E+06       1761.           0.000    
    642      1    115     25       1775.           1920.           1774.           0.000    
    643      1    115     26       1755.          0.2092E+06       1752.           0.000    
    644      1    115     26       1755.          0.2092E+06       1752.           0.000    
    645      1    115     26       1755.          0.2092E+06       1752.           0.000    
    646      1    115     26       1755.          0.2092E+06       1752.           0.000    
    647      1    115     27       1763.          0.1239E+06       1759.           0.000    
    648      1    115     28       1797.          0.5310E+05       1794.           0.000    
    649      1    116     24       1772.          0.7607E+05       1769.           0.000    
    650      1    116     25       1751.          0.1982E+06       1747.           0.000    
    651      1    116     26       1758.          0.4322E+05       1754.           0.000    
    652      1    117     23       1750.          0.4104E+05       1747.           0.000    
    653      1    117     24       1743.          0.1961E+06       1741.           0.000    
    654      1    117     24       1743.          0.1961E+06       1741.           0.000    
    655      1    117     24       1743.          0.1961E+06       1741.           0.000    
    656      1    117     25       1752.          0.1020E+05       1751.           0.000    
    657      1    118     22       1763.          0.4742E+05       1759.           0.000    
    658      1    118     23       1735.          0.2250E+06       1731.           0.000    
    659      1    118     25       1774.           5346.           1774.           0.000    
    660      1    118     26       1796.          0.1463E+05       1795.           0.000    
    661      1    118     27       1815.          0.1297E+05       1814.           0.000    
    662      1    118     28       1826.          0.1283E+05       1826.           0.000    
    663      1    118     29       1838.          0.1148E+05       1838.           0.000    
    664      1    119     19       1765.           6394.           1765.           0.000    
    665      1    119     21       1766.          0.8245E+05       1763.           0.000    
    666      1    119     22       1732.          0.2333E+06       1728.           0.000    
    667      1    120     19       1751.          0.1169E+05       1750.           0.000    
    668      1    120     21       1732.          0.2022E+06       1729.           0.000    
    669      1    121     19       1733.          0.1246E+05       1733.           0.000    
    670      1    121     20       1725.          0.1514E+06       1721.           0.000    
    671      1    121     21       1723.          0.6129E+05       1720.           0.000    
    672      1    122     18       1717.          0.2594E+05       1713.           0.000    
    673      1    122     19       1712.          0.2421E+06       1710.           0.000    
    674      1    122     19       1712.          0.2421E+06       1710.           0.000    
    675      1    122     19       1712.          0.2421E+06       1710.           0.000    
    676      1    122     20       1714.          0.1441E+06       1711.           0.000    
    677      1    123     15       1700.           9078.           1697.           0.000    
    678      1    123     16       1698.          0.4148E+05       1695.           0.000    
    679      1    123     16       1698.          0.4148E+05       1695.           0.000    
    680      1    123     17       1698.          0.2347E+06       1695.           0.000    
    681      1    123     18       1703.          0.2199E+06       1700.           0.000    
    682      1    124     14       1685.          0.1947E+06       1682.           0.000    
    683      1    124     15       1688.          0.2898E+06       1685.           0.000    
    684      1    124     16       1700.          0.1742E+06       1697.           0.000    
    685      1    125     11       1675.          0.1430E+06       1671.           0.000    
    686      1    125     12       1677.          0.2424E+06       1673.           0.000    
    687      1    125     13       1681.          0.1638E+06       1678.           0.000    
    688      1    125     13       1681.          0.1638E+06       1678.           0.000    
    689      1    125     13       1681.          0.1638E+06       1678.           0.000    
    690      1    125     14       1697.          0.1325E+05       1694.           0.000    
    691      1    126      9       1668.          0.1792E+06       1665.           0.000    
    692      1    126     10       1669.          0.1995E+06       1666.           0.000    
    693      1    126     11       1684.          0.6907E+05       1681.           0.000    
    694      1    127      7       1663.          0.8546E+05       1659.           0.000    
    695      1    127      8       1657.          0.2300E+06       1653.           0.000    
    696      1    127      9       1675.          0.8158E+05       1672.           0.000    
    697      1    128      6       1655.          0.1295E+06       1652.           0.000    
    698      1    128      7       1662.          0.1904E+06       1658.           0.000    
    699      1    129      4       1641.          0.5123E+05       1638.           0.000    
    700      1    129      5       1649.          0.2216E+06       1646.           0.000    
    701      1    129      6       1679.          0.9375E+05       1675.           0.000    
    702      1    130      2       1628.          0.1357E+06       1625.           0.000    
    703      1    130      3       1629.          0.2065E+06       1626.           0.000    
    704      1    130      4       1644.          0.2083E+06       1641.           0.000    
    705      1    131      1       1620.          0.1656E+06       1616.           0.000    
    706      1    131      2       1626.          0.1123E+06       1623.           0.000    

    706 RIVER REACHES



                           RECHARGE
 READING ON UNIT 5024 WITH FORMAT: (FREE)              

            1           2           3           4           5           6           7           8           9          10
           11          12          13          14          15          16          17          18          19          20
           21          22          23          24          25          26          27          28          29          30
           31          32          33          34          35          36          37          38          39          40
           41          42          43          44          45          46          47          48          49          50
           51          52          53          54          55          56          57          58          59          60
           61          62          63          64          65          66          67          68          69          70
           71          72          73          74          75          76
 ........................................................................................................................
   1    0.000       0.000       0.000       0.000       0.000       0.000       0.000       0.000       0.000       0.000    
        0.000       0.000       0.000       0.000       0.000       0.000       0.000       0.000       0.000       0.000    
        0.000       0.000       0.000       0.000       0.000       0.000       0.000       0.000       0.000       0.000    
        0.000       0.000       0.000       0.000       0.000       0.000       0.000       0.000       0.000       0.000    
        0.000       0.000       0.000       0.000       0.000       0.000       0.000       0.000       0.000       0.000    
        0.000       0.000       0.000       0.000       0.000       0.000       0.000       0.000       0.000       0.000    
        0.000       0.000       0.000       0.000       0.000       0.000       0.000       0.000       0.000       0.000    
       1.0000E-05  1.0000E-05  1.0000E-05  1.0000E-05   0.000       0.000    
   2    0.000       0.000       0.000       0.000       0.000       0.000       0.000       0.000       0.000       0.000    
        0.000       0.000       0.000       0.000       0.000       0.000       0.000       0.000       0.000       0.000    
        0.000       0.000       0.000       0.000       0.000       0.000       0.000       0.000       0.000       0.000    
        0.000       0.000       0.000       0.000       0.000       0.000       0.000       0.000       0.000       0.000    
        0.000       0.000       0.000       0.000       0.000       0.000       0.000       0.000       0.000       0.000    
        0.000       0.000       0.000       0.000       0.000       0.000       0.000       0.000       0.000       0.000    
        0.000       0.000       0.000       0.000       0.000       0.000       0.000       0.000       0.000      1.0000E-05
       1.0000E-05  1.0000E-05  1.0000E-05  1.0000E-05  1.0000E-05  1.0000E-05
   3    0.000       0.000       0.000       0.000       0.000       0.000       0.000       0.000       0.000       0.000    
        0.000       0.000       0.000       0.000       0.000       0.000       0.000       0.000       0.000       0.000    
        0.000       0.000       0.000       0.000       0.000       0.000       0.000       0.000       0.000       0.000    
        0.000       0.000       0.000       0.000       0.000       0.000       0.000       0.000       0.000       0.000    
        0.000       0.000       0.000       0.000       0.000       0.000       0.000       0.000       0.000       0.000    
        0.000       0.000       0.000       0.000       0.000       0.000       0.000       0.000       0.000       0.000    
        0.000       0.000       0.000       0.000       0.000       0.000       0.000       0.000      1.0000E-05  1.0000E-05
       1.0000E-05  1.0000E-05  1.0000E-05  1.0000E-05  1.0000E-05  1.0000E-05
   4    0.000       0.000       0.000       0.000       0.000       0.000       0.000       0.000       0.000       0.000    
        0.000       0.000       0.000       0.000       0.000       0.000       0.000       0.000       0.000       0.000    
        0.000       0.000       0.000       0.000       0.000       0.000       0.000       0.000       0.000       0.000    
        0.000       0.000       0.000       0.000       0.000       0.000       0.000       0.000       0.000       0.000    
        0.000       0.000       0.000       0.000       0.000       0.000       0.000       0.000       0.000       0.000    
        0.000       0.000       0.000       0.000       0.000       0.000       0.000       0.000       0.000       0.000    
        0.000       0.000       0.000       0.000       0.000      1.0000E-05  1.0000E-05  1.0000E-05  1.0000E-05  1.0000E-05
       1.0000E-05  1.0000E-05  1.0000E-05  1.0000E-05  1.0000E-05  1.0000E-05
   5    0.000       0.000       0.000       0.000       0.000       0.000       0.000       0.000       0.000       0.000    
        0.000       0.000       0.000       0.000       0.000       0.000       0.000       0.000       0.000       0.000    
        0.000       0.000       0.000       0.000       0.000       0.000       0.000       0.000       0.000       0.000    
        0.000       0.000       0.000       0.000       0.000       0.000       0.000       0.000       0.000       0.000    
        0.000       0.000       0.000       0.000       0.000       0.000       0.000       0.000       0.000       0.000    
        0.000       0.000       0.000       0.000       0.000       0.000      1.0000E-05  1.0000E-05   0.000       0.000    
        0.000       0.000       0.000      1.0000E-05  1.0000E-05  1.0000E-05  1.0000E-05  1.0000E-05  1.0000E-05  1.0000E-05
       1.0000E-05  1.0000E-05  1.0000E-05  1.0000E-05  1.0000E-05   0.000    
   6    0.000       0.000       0.000       0.000       0.000       0.000       0.000       0.000       0.000       0.000    
        0.000       0.000       0.000       0.000       0.000       0.000       0.000       0.000       0.000       0.000    
        0.000       0.000       0.000       0.000       0.000       0.000       0.000       0.000       0.000       0.000    
        0.000       0.000       0.000       0.000       0.000       0.000       0.000       0.000       0.000       0.000    
        0.000       0.000       0.000       0.000       0.000       0.000       0.000       0.000       0.000       0.000    
        0.000       0.000       0.000       0.000       0.000      1.0000E-05  1.0000E-05  1.0000E-05  1.0000E-05  1.0000E-05
       1.0000E-05  1.0000E-05  1.0000E-05  1.0000E-05  1.0000E-05  1.0000E-05  1.0000E-05  1.0000E-05  1.0000E-05  1.0000E-05
       1.0000E-05  1.0000E-05  1.0000E-05  1.0000E-05  1.0000E-05  1.0000E-05
   7    0.000       0.000       0.000       0.000       0.000       0.000       0.000       0.000       0.000       0.000    
        0.000       0.000       0.000       0.000       0.000       0.000       0.000       0.000       0.000       0.000    
        0.000       0.000       0.000       0.000       0.000       0.000       0.000       0.000       0.000       0.000    
        0.000       0.000       0.000       0.000       0.000       0.000       0.000       0.000       0.000       0.000    
        0.000       0.000       0.000       0.000       0.000       0.000       0.000       0.000       0.000       0.000    
        0.000       0.000       0.000       0.000      1.0000E-05  1.0000E-05  1.0000E-05  1.0000E-05  1.0000E-05  1.0000E-05
       1.0000E-05  1.0000E-05  1.0000E-05  1.0000E-05  1.0000E-05  1.0000E-05  1.0000E-05  1.0000E-05  1.0000E-05  1.0000E-05
       1.0000E-05  1.0000E-05  1.0000E-05  1.0000E-05  1.0000E-05  1.0000E-05
   8    0.000       0.000       0.000       0.000       0.000       0.000       0.000       0.000       0.000       0.000    
        0.000       0.000       0.000       0.000       0.000       0.000       0.000       0.000       0.000       0.000    
        0.000       0.000       0.000       0.000       0.000       0.000       0.000       0.000       0.000       0.000    
        0.000       0.000       0.000       0.000       0.000       0.000       0.000       0.000       0.000       0.000    
        0.000       0.000       0.000       0.000       0.000       0.000       0.000       0.000       0.000       0.000    
        0.000       0.000       0.000      1.0000E-05  1.0000E-05  1.0000E-05  1.0000E-05  1.0000E-05  1.0000E-05  1.0000E-05
       1.0000E-05  1.0000E-05  1.0000E-05  1.0000E-05  1.0000E-05  1.0000E-05  1.0000E-05  1.0000E-05  1.0000E-05  1.0000E-05
       1.0000E-05  1.0000E-05  1.0000E-05  1.0000E-05  1.0000E-05  1.0000E-05
   9    0.000       0.000       0.000       0.000       0.000       0.000       0.000       0.000       0.000       0.000    
        0.000       0.000       0.000       0.000       0.000       0.000       0.000       0.000       0.000       0.000    
        0.000       0.000       0.000       0.000       0.000       0.000       0.000       0.000       0.000       0.000    
        0.000       0.000       0.000       0.000       0.000       0.000       0.000       0.000       0.000       0.000    
        0.000       0.000       0.000       0.000       0.000       0.000       0.000       0.000       0.000       0.000    
        0.000       0.000      1.0000E-05  1.0000E-05  1.0000E-05  1.0000E-05  1.0000E-05  1.0000E-05  1.0000E-05  1.0000E-05
       1.0000E-05  1.0000E-05  1.0000E-05  1.0000E-05  1.0000E-05  1.0000E-05  1.0000E-05  1.0000E-05  1.0000E-05  1.0000E-05
       1.0000E-05  1.0000E-05  1.0000E-05  1.0000E-05  1.0000E-05  1.0000E-05
  10    0.000       0.000       0.000       0.000       0.000       0.000       0.000       0.000       0.000       0.000    
        0.000       0.000       0.000       0.000       0.000       0.000       0.000       0.000       0.000       0.000    
        0.000       0.000       0.000       0.000       0.000       0.000       0.000       0.000       0.000       0.000    
        0.000       0.000       0.000       0.000       0.000       0.000       0.000       0.000       0.000       0.000    
        0.000       0.000       0.000       0.000       0.000       0.000       0.000       0.000       0.000       0.000    
        0.000       0.000      1.0000E-05  1.0000E-05  1.0000E-05  1.0000E-05  1.0000E-05  1.0000E-05  1.0000E-05  1.0000E-05
       1.0000E-05  1.0000E-05  1.0000E-05  1.0000E-05  1.0000E-05  1.0000E-05  1.0000E-05  1.0000E-05  1.0000E-05  1.0000E-05
       1.0000E-05  1.0000E-05  1.0000E-05  1.0000E-05  1.0000E-05   0.000    
  11    0.000       0.000       0.000       0.000       0.000       0.000       0.000       0.000       0.000       0.000    
        0.000       0.000       0.000       0.000       0.000       0.000       0.000       0.000       0.000       0.000    
        0.000       0.000       0.000       0.000       0.000       0.000       0.000       0.000       0.000       0.000    
        0.000       0.000       0.000       0.000       0.000       0.000       0.000       0.000       0.000       0.000    
        0.000       0.000       0.000       0.000       0.000       0.000       0.000       0.000       0.000       0.000    
        0.000       0.000      1.0000E-05  1.0000E-05  1.0000E-05  1.0000E-05  1.0000E-05  1.0000E-05  1.0000E-05  1.0000E-05
       1.0000E-05  1.0000E-05  1.0000E-05  1.0000E-05  1.0000E-05  1.0000E-05  1.0000E-05  1.0000E-05  1.0000E-05  1.0000E-05
       1.0000E-05  1.0000E-05  1.0000E-05  1.0000E-05  1.0000E-05  1.0000E-05
  12    0.000       0.000       0.000       0.000       0.000       0.000       0.000       0.000       0.000       0.000    
        0.000       0.000       0.000       0.000       0.000       0.000       0.000       0.000       0.000       0.000    
        0.000       0.000       0.000       0.000       0.000       0.000       0.000       0.000       0.000       0.000    
        0.000       0.000       0.000       0.000       0.000       0.000       0.000       0.000       0.000       0.000    
        0.000       0.000       0.000       0.000       0.000       0.000       0.000       0.000       0.000       0.000    
        0.000      1.0000E-05  1.0000E-05  1.0000E-05  1.0000E-05  1.0000E-05  1.0000E-05  1.0000E-05  1.0000E-05  1.0000E-05
       1.0000E-05  1.0000E-05  1.0000E-05  1.0000E-05  1.0000E-05  1.0000E-05  1.0000E-05  1.0000E-05  1.0000E-05  1.0000E-05
       1.0000E-05  1.0000E-05  1.0000E-05  1.0000E-05  1.0000E-05  1.0000E-05
  13    0.000       0.000       0.000       0.000       0.000       0.000       0.000       0.000       0.000       0.000    
        0.000       0.000       0.000       0.000       0.000       0.000       0.000       0.000       0.000       0.000    
        0.000       0.000       0.000       0.000       0.000       0.000       0.000       0.000       0.000       0.000    
        0.000       0.000       0.000       0.000       0.000       0.000       0.000       0.000       0.000       0.000    
        0.000       0.000       0.000       0.000       0.000       0.000       0.000       0.000       0.000      1.0000E-05
       1.0000E-05  1.0000E-05  1.0000E-05  1.0000E-05  1.0000E-05  1.0000E-05  1.0000E-05  1.0000E-05  1.0000E-05  1.0000E-05
       1.0000E-05  1.0000E-05  1.0000E-05  1.0000E-05  1.0000E-05  1.0000E-05  1.0000E-05  1.0000E-05  1.0000E-05  1.0000E-05
       1.0000E-05  1.0000E-05  1.0000E-05  1.0000E-05  1.0000E-05  1.0000E-05
  14    0.000       0.000       0.000       0.000       0.000       0.000       0.000       0.000       0.000       0.000    
        0.000       0.000       0.000       0.000       0.000       0.000       0.000       0.000       0.000       0.000    
        0.000       0.000       0.000       0.000       0.000       0.000       0.000       0.000       0.000       0.000    
        0.000       0.000       0.000       0.000       0.000       0.000       0.000       0.000       0.000       0.000    
        0.000       0.000       0.000       0.000       0.000       0.000       0.000      1.0000E-05  1.0000E-05  1.0000E-05
       1.0000E-05  1.0000E-05  1.0000E-05  1.0000E-05  1.0000E-05  1.0000E-05  1.0000E-05  1.0000E-05  1.0000E-05  1.0000E-05
       1.0000E-05  1.0000E-05  1.0000E-05  1.0000E-05  1.0000E-05  1.0000E-05  1.0000E-05  1.0000E-05  1.0000E-05  1.0000E-05
       1.0000E-05  1.0000E-05  1.0000E-05  1.0000E-05  1.0000E-05  1.0000E-05
  15    0.000       0.000       0.000       0.000       0.000       0.000       0.000       0.000       0.000       0.000    
        0.000       0.000       0.000       0.000       0.000       0.000       0.000       0.000       0.000       0.000    
        0.000       0.000       0.000       0.000       0.000       0.000       0.000       0.000       0.000       0.000    
        0.000       0.000       0.000       0.000       0.000       0.000       0.000       0.000       0.000       0.000    
        0.000       0.000       0.000       0.000       0.000       0.000       0.000      1.0000E-05  1.0000E-05  1.0000E-05
       1.0000E-05  1.0000E-05  1.0000E-05  1.0000E-05  1.0000E-05  1.0000E-05  1.0000E-05  1.0000E-05  1.0000E-05  1.0000E-05
       1.0000E-05  1.0000E-05  1.0000E-05  1.0000E-05  1.0000E-05  1.0000E-05  1.0000E-05  1.0000E-05  1.0000E-05  1.0000E-05
       1.0000E-05  1.0000E-05  1.0000E-05  1.0000E-05  1.0000E-05  1.0000E-05
  16    0.000       0.000       0.000       0.000       0.000       0.000       0.000       0.000       0.000       0.000    
        0.000       0.000       0.000       0.000       0.000       0.000       0.000       0.000       0.000       0.000    
        0.000       0.000       0.000       0.000       0.000       0.000       0.000       0.000       0.000       0.000    
        0.000       0.000       0.000       0.000       0.000       0.000       0.000       0.000       0.000       0.000    
        0.000       0.000       0.000       0.000       0.000       0.000       0.000      1.0000E-05  1.0000E-05  1.0000E-05
       1.0000E-05  1.0000E-05  1.0000E-05  1.0000E-05  1.0000E-05  1.0000E-05  1.0000E-05  1.0000E-05  1.0000E-05  1.0000E-05
       1.0000E-05  1.0000E-05  1.0000E-05  1.0000E-05  1.0000E-05  1.0000E-05  1.0000E-05  1.0000E-05  1.0000E-05  1.0000E-05
       1.0000E-05  1.0000E-05  1.0000E-05  1.0000E-05  1.0000E-05  1.0000E-05
  17    0.000       0.000       0.000       0.000       0.000       0.000       0.000       0.000       0.000       0.000    
        0.000       0.000       0.000       0.000       0.000       0.000       0.000       0.000       0.000       0.000    
        0.000       0.000       0.000       0.000       0.000       0.000       0.000       0.000       0.000       0.000    
        0.000       0.000       0.000       0.000       0.000       0.000       0.000       0.000       0.000       0.000    
        0.000       0.000       0.000       0.000       0.000       0.000      1.0000E-05  1.0000E-05  1.0000E-05  1.0000E-05
       1.0000E-05  1.0000E-05  1.0000E-05  1.0000E-05  1.0000E-05  1.0000E-05  1.0000E-05  1.0000E-05  1.0000E-05  1.0000E-05
       1.0000E-05  1.0000E-05  1.0000E-05  1.0000E-05  1.0000E-05  1.0000E-05  1.0000E-05  1.0000E-05  1.0000E-05  1.0000E-05
       1.0000E-05  1.0000E-05  1.0000E-05  1.0000E-05  1.0000E-05   0.000    
  18    0.000       0.000       0.000       0.000       0.000       0.000       0.000       0.000       0.000       0.000    
        0.000       0.000       0.000       0.000       0.000       0.000       0.000       0.000       0.000       0.000    
        0.000       0.000       0.000       0.000       0.000       0.000       0.000       0.000       0.000       0.000    
        0.000       0.000       0.000       0.000       0.000       0.000       0.000       0.000       0.000       0.000    
        0.000       0.000       0.000       0.000      1.0000E-05  1.0000E-05  1.0000E-05  1.0000E-05  1.0000E-05  1.0000E-05
       1.0000E-05  1.0000E-05  1.0000E-05  1.0000E-05  1.0000E-05  1.0000E-05  1.0000E-05  1.0000E-05  1.0000E-05  1.0000E-05
       1.0000E-05  1.0000E-05  1.0000E-05  1.0000E-05  1.0000E-05  1.0000E-05  1.0000E-05  1.0000E-05  1.0000E-05  1.0000E-05
       1.0000E-05  1.0000E-05  1.0000E-05  1.0000E-05  1.0000E-05   0.000    
  19    0.000       0.000       0.000       0.000       0.000       0.000       0.000       0.000       0.000       0.000    
        0.000       0.000       0.000       0.000       0.000       0.000       0.000       0.000       0.000       0.000    
        0.000       0.000       0.000       0.000       0.000       0.000       0.000       0.000       0.000       0.000    
        0.000       0.000       0.000       0.000       0.000       0.000       0.000       0.000       0.000       0.000    
        0.000       0.000       0.000      1.0000E-05  1.0000E-05  1.0000E-05  1.0000E-05  1.0000E-05  1.0000E-05  1.0000E-05
       1.0000E-05  1.0000E-05  1.0000E-05  1.0000E-05  1.0000E-05  1.0000E-05  1.0000E-05  1.0000E-05  1.0000E-05  1.0000E-05
       1.0000E-05  1.0000E-05  1.0000E-05  1.0000E-05  1.0000E-05  1.0000E-05  1.0000E-05  1.0000E-05  1.0000E-05  1.0000E-05
       1.0000E-05  1.0000E-05  1.0000E-05  1.0000E-05   0.000       0.000    
  20    0.000       0.000       0.000       0.000       0.000       0.000       0.000       0.000       0.000       0.000    
        0.000       0.000       0.000       0.000       0.000       0.000       0.000       0.000       0.000       0.000    
        0.000       0.000       0.000       0.000       0.000       0.000       0.000       0.000       0.000       0.000    
        0.000       0.000       0.000       0.000       0.000       0.000       0.000       0.000       0.000       0.000    
        0.000       0.000       0.000      1.0000E-05  1.0000E-05  1.0000E-05  1.0000E-05  1.0000E-05  1.0000E-05  1.0000E-05
       1.0000E-05  1.0000E-05  1.0000E-05  1.0000E-05  1.0000E-05  1.0000E-05  1.0000E-05  1.0000E-05  1.0000E-05  1.0000E-05
       1.0000E-05  1.0000E-05  1.0000E-05  1.0000E-05  1.0000E-05  1.0000E-05  1.0000E-05  1.0000E-05  1.0000E-05  1.0000E-05
       1.0000E-05  1.0000E-05   0.000       0.000       0.000       0.000    
  21    0.000       0.000       0.000       0.000       0.000       0.000       0.000       0.000       0.000       0.000    
        0.000       0.000       0.000       0.000       0.000       0.000       0.000       0.000       0.000       0.000    
        0.000       0.000       0.000       0.000       0.000       0.000       0.000       0.000       0.000       0.000    
        0.000       0.000       0.000       0.000       0.000       0.000       0.000       0.000       0.000       0.000    
        0.000       0.000       0.000      1.0000E-05  1.0000E-05  1.0000E-05  1.0000E-05  1.0000E-05  1.0000E-05  1.0000E-05
       1.0000E-05  1.0000E-05  1.0000E-05  1.0000E-05  1.0000E-05  1.0000E-05  1.0000E-05  1.0000E-05  1.0000E-05  1.0000E-05
       1.0000E-05  1.0000E-05  1.0000E-05  1.0000E-05  1.0000E-05  1.0000E-05  1.0000E-05  1.0000E-05  1.0000E-05  1.0000E-05
       1.0000E-05  1.0000E-05   0.000       0.000       0.000       0.000    
  22    0.000       0.000       0.000       0.000       0.000       0.000       0.000       0.000       0.000       0.000    
        0.000       0.000       0.000       0.000       0.000       0.000       0.000       0.000       0.000       0.000    
        0.000       0.000       0.000       0.000       0.000       0.000       0.000       0.000       0.000       0.000    
        0.000       0.000       0.000       0.000       0.000       0.000       0.000       0.000       0.000       0.000    
        0.000       0.000      1.0000E-05  1.0000E-05  1.0000E-05  1.0000E-05  1.0000E-05  1.0000E-05  1.0000E-05  1.0000E-05
       1.0000E-05  1.0000E-05  1.0000E-05  1.0000E-05  1.0000E-05  1.0000E-05  1.0000E-05  1.0000E-05  1.0000E-05  1.0000E-05
       1.0000E-05  1.0000E-05  1.0000E-05  1.0000E-05  1.0000E-05  1.0000E-05  1.0000E-05  1.0000E-05  1.0000E-05  1.0000E-05
       1.0000E-05   0.000       0.000       0.000       0.000       0.000    
  23    0.000       0.000       0.000       0.000       0.000       0.000       0.000       0.000       0.000       0.000    
        0.000       0.000       0.000       0.000       0.000       0.000       0.000       0.000       0.000       0.000    
        0.000       0.000       0.000       0.000       0.000       0.000       0.000       0.000       0.000       0.000    
        0.000       0.000       0.000       0.000       0.000       0.000       0.000       0.000       0.000       0.000    
        0.000       0.000      1.0000E-05  1.0000E-05  1.0000E-05  1.0000E-05  1.0000E-05  1.0000E-05  1.0000E-05  1.0000E-05
       1.0000E-05  1.0000E-05  1.0000E-05  1.0000E-05  1.0000E-05  1.0000E-05  1.0000E-05  1.0000E-05  1.0000E-05  1.0000E-05
       1.0000E-05  1.0000E-05  1.0000E-05  1.0000E-05  1.0000E-05  1.0000E-05  1.0000E-05  1.0000E-05  1.0000E-05  1.0000E-05
       1.0000E-05   0.000       0.000       0.000       0.000       0.000    
  24    0.000       0.000       0.000       0.000       0.000       0.000       0.000       0.000       0.000       0.000    
        0.000       0.000       0.000       0.000       0.000       0.000       0.000       0.000       0.000       0.000    
        0.000       0.000       0.000       0.000       0.000       0.000       0.000       0.000       0.000       0.000    
        0.000       0.000       0.000       0.000       0.000       0.000       0.000       0.000      1.0000E-05  1.0000E-05
       1.0000E-05  1.0000E-05  1.0000E-05  1.0000E-05  1.0000E-05  1.0000E-05  1.0000E-05  1.0000E-05  1.0000E-05  1.0000E-05
       1.0000E-05  1.0000E-05  1.0000E-05  1.0000E-05  1.0000E-05  1.0000E-05  1.0000E-05  1.0000E-05  1.0000E-05  1.0000E-05
       1.0000E-05  1.0000E-05  1.0000E-05  1.0000E-05  1.0000E-05  1.0000E-05  1.0000E-05  1.0000E-05  1.0000E-05  1.0000E-05
       1.0000E-05   0.000       0.000       0.000       0.000       0.000    
  25    0.000       0.000       0.000       0.000       0.000       0.000       0.000       0.000       0.000       0.000    
        0.000       0.000       0.000       0.000       0.000       0.000       0.000       0.000       0.000       0.000    
        0.000       0.000       0.000       0.000       0.000       0.000       0.000       0.000       0.000       0.000    
        0.000       0.000       0.000       0.000      1.0000E-05  1.0000E-05  1.0000E-05  1.0000E-05  1.0000E-05  1.0000E-05
       1.0000E-05  1.0000E-05  1.0000E-05  1.0000E-05  1.0000E-05  1.0000E-05  1.0000E-05  1.0000E-05  1.0000E-05  1.0000E-05
       1.0000E-05  1.0000E-05  1.0000E-05  1.0000E-05  1.0000E-05  1.0000E-05  1.0000E-05  1.0000E-05  1.0000E-05  1.0000E-05
       1.0000E-05  1.0000E-05  1.0000E-05  1.0000E-05  1.0000E-05  1.0000E-05  1.0000E-05  1.0000E-05  1.0000E-05  1.0000E-05
       1.0000E-05  1.0000E-05   0.000       0.000       0.000       0.000    
  26    0.000       0.000       0.000       0.000       0.000       0.000       0.000       0.000       0.000       0.000    
        0.000       0.000       0.000       0.000       0.000       0.000       0.000       0.000       0.000       0.000    
        0.000       0.000       0.000       0.000       0.000       0.000       0.000       0.000       0.000       0.000    
        0.000       0.000       0.000       0.000      1.0000E-05  1.0000E-05  1.0000E-05  1.0000E-05  1.0000E-05  1.0000E-05
       1.0000E-05  1.0000E-05  1.0000E-05  1.0000E-05  1.0000E-05  1.0000E-05  1.0000E-05  1.0000E-05  1.0000E-05  1.0000E-05
       1.0000E-05  1.0000E-05  1.0000E-05  1.0000E-05  1.0000E-05  1.0000E-05  1.0000E-05  1.0000E-05  1.0000E-05  1.0000E-05
       1.0000E-05  1.0000E-05  1.0000E-05  1.0000E-05  1.0000E-05  1.0000E-05  1.0000E-05  1.0000E-05  1.0000E-05  1.0000E-05
       1.0000E-05  1.0000E-05   0.000       0.000       0.000       0.000    
  27    0.000       0.000       0.000       0.000       0.000       0.000       0.000       0.000       0.000       0.000    
        0.000       0.000       0.000       0.000       0.000       0.000       0.000       0.000       0.000       0.000    
        0.000       0.000       0.000       0.000       0.000       0.000       0.000       0.000       0.000       0.000    
        0.000       0.000       0.000      1.0000E-05  1.0000E-05  1.0000E-05  1.0000E-05  1.0000E-05  1.0000E-05  1.0000E-05
       1.0000E-05  1.0000E-05  1.0000E-05  1.0000E-05  1.0000E-05  1.0000E-05  1.0000E-05  1.0000E-05  1.0000E-05  1.0000E-05
       1.0000E-05  1.0000E-05  1.0000E-05  1.0000E-05  1.0000E-05  1.0000E-05  1.0000E-05  1.0000E-05  1.0000E-05  1.0000E-05
       1.0000E-05  1.0000E-05  1.0000E-05  1.0000E-05  1.0000E-05  1.0000E-05  1.0000E-05  1.0000E-05  1.0000E-05  1.0000E-05
       1.0000E-05  1.0000E-05  1.0000E-05   0.000       0.000       0.000    
  28    0.000       0.000       0.000       0.000       0.000       0.000       0.000       0.000       0.000       0.000    
        0.000       0.000       0.000       0.000       0.000       0.000       0.000       0.000       0.000       0.000    
        0.000       0.000       0.000       0.000       0.000       0.000       0.000       0.000       0.000       0.000    
        0.000       0.000       0.000      1.0000E-05  1.0000E-05  1.0000E-05  1.0000E-05  1.0000E-05  1.0000E-05  1.0000E-05
       1.0000E-05  1.0000E-05  1.0000E-05  1.0000E-05  1.0000E-05  1.0000E-05  1.0000E-05  1.0000E-05  1.0000E-05  1.0000E-05
       1.0000E-05  1.0000E-05  1.0000E-05  1.0000E-05  1.0000E-05  1.0000E-05  1.0000E-05  1.0000E-05  1.0000E-05  1.0000E-05
       1.0000E-05  1.0000E-05  1.0000E-05  1.0000E-05  1.0000E-05  1.0000E-05  1.0000E-05  1.0000E-05  1.0000E-05  1.0000E-05
       1.0000E-05  1.0000E-05  1.0000E-05   0.000       0.000       0.000    
  29    0.000       0.000       0.000       0.000       0.000       0.000       0.000       0.000       0.000       0.000    
        0.000       0.000       0.000       0.000       0.000       0.000       0.000       0.000       0.000       0.000    
        0.000       0.000       0.000       0.000       0.000       0.000       0.000       0.000       0.000       0.000    
        0.000       0.000       0.000       0.000      1.0000E-05  1.0000E-05  1.0000E-05  1.0000E-05  1.0000E-05  1.0000E-05
       1.0000E-05  1.0000E-05  1.0000E-05  1.0000E-05  1.0000E-05  1.0000E-05  1.0000E-05  1.0000E-05  1.0000E-05  1.0000E-05
       1.0000E-05  1.0000E-05  1.0000E-05  1.0000E-05  1.0000E-05  1.0000E-05  1.0000E-05  1.0000E-05  1.0000E-05  1.0000E-05
       1.0000E-05  1.0000E-05  1.0000E-05  1.0000E-05  1.0000E-05  1.0000E-05  1.0000E-05  1.0000E-05  1.0000E-05  1.0000E-05
       1.0000E-05  1.0000E-05   0.000       0.000       0.000       0.000    
  30    0.000       0.000       0.000       0.000       0.000       0.000       0.000       0.000       0.000       0.000    
        0.000       0.000       0.000       0.000       0.000       0.000       0.000       0.000       0.000       0.000    
        0.000       0.000       0.000       0.000       0.000       0.000       0.000       0.000       0.000       0.000    
        0.000       0.000       0.000       0.000      1.0000E-05  1.0000E-05  1.0000E-05  1.0000E-05  1.0000E-05  1.0000E-05
       1.0000E-05  1.0000E-05  1.0000E-05  1.0000E-05  1.0000E-05  1.0000E-05  1.0000E-05  1.0000E-05  1.0000E-05  1.0000E-05
       1.0000E-05  1.0000E-05  1.0000E-05  1.0000E-05  1.0000E-05  1.0000E-05  1.0000E-05  1.0000E-05  1.0000E-05  1.0000E-05
       1.0000E-05  1.0000E-05  1.0000E-05  1.0000E-05  1.0000E-05  1.0000E-05  1.0000E-05  1.0000E-05  1.0000E-05  1.0000E-05
       1.0000E-05   0.000       0.000       0.000       0.000       0.000    
  31    0.000       0.000       0.000       0.000       0.000       0.000       0.000       0.000       0.000       0.000    
        0.000       0.000       0.000       0.000       0.000       0.000       0.000       0.000       0.000       0.000    
        0.000       0.000       0.000       0.000       0.000       0.000       0.000       0.000       0.000       0.000    
        0.000       0.000       0.000       0.000      1.0000E-05  1.0000E-05  1.0000E-05  1.0000E-05  1.0000E-05  1.0000E-05
       1.0000E-05  1.0000E-05  1.0000E-05  1.0000E-05  1.0000E-05  1.0000E-05  1.0000E-05  1.0000E-05  1.0000E-05  1.0000E-05
       1.0000E-05  1.0000E-05  1.0000E-05  1.0000E-05  1.0000E-05  1.0000E-05  1.0000E-05  1.0000E-05  1.0000E-05  1.0000E-05
       1.0000E-05  1.0000E-05  1.0000E-05  1.0000E-05  1.0000E-05  1.0000E-05  1.0000E-05  1.0000E-05  1.0000E-05   0.000    
        0.000       0.000       0.000       0.000       0.000       0.000    
  32    0.000       0.000       0.000       0.000       0.000       0.000       0.000       0.000       0.000       0.000    
        0.000       0.000       0.000       0.000       0.000       0.000       0.000       0.000       0.000       0.000    
        0.000       0.000       0.000       0.000       0.000       0.000       0.000       0.000       0.000       0.000    
        0.000       0.000      1.0000E-05  1.0000E-05  1.0000E-05  1.0000E-05  1.0000E-05  1.0000E-05  1.0000E-05  1.0000E-05
       1.0000E-05  1.0000E-05  1.0000E-05  1.0000E-05  1.0000E-05  1.0000E-05  1.0000E-05  1.0000E-05  1.0000E-05  1.0000E-05
       1.0000E-05  1.0000E-05  1.0000E-05  1.0000E-05  1.0000E-05  1.0000E-05  1.0000E-05  1.0000E-05  1.0000E-05  1.0000E-05
       1.0000E-05  1.0000E-05  1.0000E-05  1.0000E-05  1.0000E-05  1.0000E-05  1.0000E-05  1.0000E-05  1.0000E-05  1.0000E-05
        0.000       0.000       0.000       0.000       0.000       0.000    
  33    0.000       0.000       0.000       0.000       0.000       0.000       0.000       0.000       0.000       0.000    
        0.000       0.000       0.000       0.000       0.000       0.000       0.000       0.000       0.000       0.000    
        0.000       0.000       0.000       0.000       0.000       0.000       0.000       0.000       0.000       0.000    
        0.000      1.0000E-05  1.0000E-05  1.0000E-05  1.0000E-05  1.0000E-05  1.0000E-05  1.0000E-05  1.0000E-05  1.0000E-05
       1.0000E-05  1.0000E-05  1.0000E-05  1.0000E-05  1.0000E-05  1.0000E-05  1.0000E-05  1.0000E-05  1.0000E-05  1.0000E-05
       1.0000E-05  1.0000E-05  1.0000E-05  1.0000E-05  1.0000E-05  1.0000E-05  1.0000E-05  1.0000E-05  1.0000E-05  1.0000E-05
       1.0000E-05  1.0000E-05  1.0000E-05  1.0000E-05  1.0000E-05  1.0000E-05  1.0000E-05  1.0000E-05  1.0000E-05  1.0000E-05
        0.000       0.000       0.000       0.000       0.000       0.000    
  34    0.000       0.000       0.000       0.000       0.000       0.000       0.000       0.000       0.000       0.000    
        0.000       0.000       0.000       0.000       0.000       0.000       0.000       0.000       0.000       0.000    
        0.000       0.000       0.000       0.000       0.000       0.000       0.000       0.000       0.000       0.000    
       1.0000E-05  1.0000E-05  1.0000E-05  1.0000E-05  1.0000E-05  1.0000E-05  1.0000E-05  1.0000E-05  1.0000E-05  1.0000E-05
       1.0000E-05  1.0000E-05  1.0000E-05  1.0000E-05  1.0000E-05  1.0000E-05  1.0000E-05  1.0000E-05  1.0000E-05  1.0000E-05
       1.0000E-05  1.0000E-05  1.0000E-05  1.0000E-05  1.0000E-05  1.0000E-05  1.0000E-05  1.0000E-05  1.0000E-05  1.0000E-05
       1.0000E-05  1.0000E-05  1.0000E-05  1.0000E-05  1.0000E-05  1.0000E-05  1.0000E-05  1.0000E-05   0.000       0.000    
        0.000       0.000       0.000       0.000       0.000       0.000    
  35    0.000       0.000       0.000       0.000       0.000       0.000       0.000       0.000       0.000       0.000    
        0.000       0.000       0.000       0.000       0.000       0.000       0.000       0.000       0.000       0.000    
        0.000       0.000       0.000       0.000       0.000       0.000       0.000       0.000       0.000       0.000    
       1.0000E-05  1.0000E-05  1.0000E-05  1.0000E-05  1.0000E-05  1.0000E-05  1.0000E-05  1.0000E-05  1.0000E-05  1.0000E-05
       1.0000E-05  1.0000E-05  1.0000E-05  1.0000E-05  1.0000E-05  1.0000E-05  1.0000E-05  1.0000E-05  1.0000E-05  1.0000E-05
       1.0000E-05  1.0000E-05  1.0000E-05  1.0000E-05  1.0000E-05  1.0000E-05  1.0000E-05  1.0000E-05  1.0000E-05  1.0000E-05
       1.0000E-05  1.0000E-05  1.0000E-05  1.0000E-05  1.0000E-05  1.0000E-05  1.0000E-05  1.0000E-05   0.000       0.000    
        0.000       0.000       0.000       0.000       0.000       0.000    
  36    0.000       0.000       0.000       0.000       0.000       0.000       0.000       0.000       0.000       0.000    
        0.000       0.000       0.000       0.000       0.000       0.000       0.000       0.000       0.000       0.000    
        0.000       0.000       0.000       0.000       0.000       0.000       0.000       0.000       0.000      1.0000E-05
       1.0000E-05  1.0000E-05  1.0000E-05  1.0000E-05  1.0000E-05  1.0000E-05  1.0000E-05  1.0000E-05  1.0000E-05  1.0000E-05
       1.0000E-05  1.0000E-05  1.0000E-05  1.0000E-05  1.0000E-05  1.0000E-05  1.0000E-05  1.0000E-05  1.0000E-05  1.0000E-05
       1.0000E-05  1.0000E-05  1.0000E-05  1.0000E-05  1.0000E-05  1.0000E-05  1.0000E-05  1.0000E-05  1.0000E-05  1.0000E-05
       1.0000E-05  1.0000E-05  1.0000E-05  1.0000E-05  1.0000E-05  1.0000E-05  1.0000E-05   0.000       0.000       0.000    
        0.000       0.000       0.000       0.000       0.000       0.000    
  37    0.000       0.000       0.000       0.000       0.000       0.000       0.000       0.000       0.000       0.000    
        0.000       0.000       0.000       0.000       0.000       0.000       0.000       0.000       0.000       0.000    
        0.000       0.000       0.000       0.000       0.000       0.000       0.000       0.000       0.000      1.0000E-05
       1.0000E-05  1.0000E-05  1.0000E-05  1.0000E-05  1.0000E-05  1.0000E-05  1.0000E-05  1.0000E-05  1.0000E-05  1.0000E-05
       1.0000E-05  1.0000E-05  1.0000E-05  1.0000E-05  1.0000E-05  1.0000E-05  1.0000E-05  1.0000E-05  1.0000E-05  1.0000E-05
       1.0000E-05  1.0000E-05  1.0000E-05  1.0000E-05  1.0000E-05  1.0000E-05  1.0000E-05  1.0000E-05  1.0000E-05  1.0000E-05
       1.0000E-05  1.0000E-05  1.0000E-05  1.0000E-05  1.0000E-05  1.0000E-05   0.000       0.000       0.000       0.000    
        0.000       0.000       0.000       0.000       0.000       0.000    
  38    0.000       0.000       0.000       0.000       0.000       0.000       0.000       0.000       0.000       0.000    
        0.000       0.000       0.000       0.000       0.000       0.000       0.000       0.000       0.000       0.000    
        0.000       0.000       0.000       0.000       0.000       0.000       0.000       0.000      1.0000E-05  1.0000E-05
       1.0000E-05  1.0000E-05  1.0000E-05  1.0000E-05  1.0000E-05  1.0000E-05  1.0000E-05  1.0000E-05  1.0000E-05  1.0000E-05
       1.0000E-05  1.0000E-05  1.0000E-05  1.0000E-05  1.0000E-05  1.0000E-05  1.0000E-05  1.0000E-05  1.0000E-05  1.0000E-05
       1.0000E-05  1.0000E-05  1.0000E-05  1.0000E-05  1.0000E-05  1.0000E-05  1.0000E-05  1.0000E-05  1.0000E-05  1.0000E-05
       1.0000E-05  1.0000E-05  1.0000E-05  1.0000E-05  1.0000E-05  1.0000E-05   0.000       0.000       0.000       0.000    
        0.000       0.000       0.000       0.000       0.000       0.000    
  39    0.000       0.000       0.000       0.000       0.000       0.000       0.000       0.000       0.000       0.000    
        0.000       0.000       0.000       0.000       0.000       0.000       0.000       0.000       0.000       0.000    
        0.000       0.000       0.000       0.000       0.000       0.000       0.000       0.000      1.0000E-05  1.0000E-05
       1.0000E-05  1.0000E-05  1.0000E-05  1.0000E-05  1.0000E-05  1.0000E-05  1.0000E-05  1.0000E-05  1.0000E-05  1.0000E-05
       1.0000E-05  1.0000E-05  1.0000E-05  1.0000E-05  1.0000E-05  1.0000E-05  1.0000E-05  1.0000E-05  1.0000E-05  1.0000E-05
       1.0000E-05  1.0000E-05  1.0000E-05  1.0000E-05  1.0000E-05  1.0000E-05  1.0000E-05  1.0000E-05  1.0000E-05  1.0000E-05
       1.0000E-05  1.0000E-05  1.0000E-05  1.0000E-05  1.0000E-05  1.0000E-05   0.000       0.000       0.000       0.000    
        0.000       0.000       0.000       0.000       0.000       0.000    
  40    0.000       0.000       0.000       0.000       0.000       0.000       0.000       0.000       0.000       0.000    
        0.000       0.000       0.000       0.000       0.000       0.000       0.000       0.000       0.000       0.000    
        0.000       0.000       0.000       0.000       0.000       0.000       0.000       0.000      1.0000E-05  1.0000E-05
       1.0000E-05  1.0000E-05  1.0000E-05  1.0000E-05  1.0000E-05  1.0000E-05  1.0000E-05  1.0000E-05  1.0000E-05  1.0000E-05
       1.0000E-05  1.0000E-05  1.0000E-05  1.0000E-05  1.0000E-05  1.0000E-05  1.0000E-05  1.0000E-05  1.0000E-05  1.0000E-05
       1.0000E-05  1.0000E-05  1.0000E-05  1.0000E-05  1.0000E-05  1.0000E-05  1.0000E-05  1.0000E-05  1.0000E-05  1.0000E-05
       1.0000E-05  1.0000E-05  1.0000E-05  1.0000E-05  1.0000E-05  1.0000E-05   0.000       0.000       0.000       0.000    
        0.000       0.000       0.000       0.000       0.000       0.000    
  41    0.000       0.000       0.000       0.000       0.000       0.000       0.000       0.000       0.000       0.000    
        0.000       0.000       0.000       0.000       0.000       0.000       0.000       0.000       0.000       0.000    
        0.000       0.000       0.000       0.000       0.000       0.000       0.000      1.0000E-05  1.0000E-05  1.0000E-05
       1.0000E-05  1.0000E-05  1.0000E-05  1.0000E-05  1.0000E-05  1.0000E-05  1.0000E-05  1.0000E-05  1.0000E-05  1.0000E-05
       1.0000E-05  1.0000E-05  1.0000E-05  1.0000E-05  1.0000E-05  1.0000E-05  1.0000E-05  1.0000E-05  1.0000E-05  1.0000E-05
       1.0000E-05  1.0000E-05  1.0000E-05  1.0000E-05  1.0000E-05  1.0000E-05  1.0000E-05  1.0000E-05  1.0000E-05  1.0000E-05
       1.0000E-05  1.0000E-05  1.0000E-05  1.0000E-05  1.0000E-05   0.000       0.000       0.000       0.000       0.000    
        0.000       0.000       0.000       0.000       0.000       0.000    
  42    0.000       0.000       0.000       0.000       0.000       0.000       0.000       0.000       0.000       0.000    
        0.000       0.000       0.000       0.000       0.000       0.000       0.000       0.000       0.000       0.000    
        0.000       0.000       0.000       0.000       0.000       0.000       0.000      1.0000E-05  1.0000E-05  1.0000E-05
       1.0000E-05  1.0000E-05  1.0000E-05  1.0000E-05  1.0000E-05  1.0000E-05  1.0000E-05  1.0000E-05  1.0000E-05  1.0000E-05
       1.0000E-05  1.0000E-05  1.0000E-05  1.0000E-05  1.0000E-05  1.0000E-05  1.0000E-05  1.0000E-05  1.0000E-05  1.0000E-05
       1.0000E-05  1.0000E-05  1.0000E-05  1.0000E-05  1.0000E-05  1.0000E-05  1.0000E-05  1.0000E-05  1.0000E-05  1.0000E-05
       1.0000E-05  1.0000E-05  1.0000E-05  1.0000E-05  1.0000E-05  1.0000E-05   0.000       0.000       0.000       0.000    
        0.000       0.000       0.000       0.000       0.000       0.000    
  43    0.000       0.000       0.000       0.000       0.000       0.000       0.000       0.000       0.000       0.000    
        0.000       0.000       0.000       0.000       0.000       0.000       0.000       0.000       0.000       0.000    
        0.000       0.000       0.000       0.000       0.000       0.000      1.0000E-05  1.0000E-05  1.0000E-05  1.0000E-05
       1.0000E-05  1.0000E-05  1.0000E-05  1.0000E-05  1.0000E-05  1.0000E-05  1.0000E-05  1.0000E-05  1.0000E-05  1.0000E-05
       1.0000E-05  1.0000E-05  1.0000E-05  1.0000E-05  1.0000E-05  1.0000E-05  1.0000E-05  1.0000E-05  1.0000E-05  1.0000E-05
       1.0000E-05  1.0000E-05  1.0000E-05  1.0000E-05  1.0000E-05  1.0000E-05  1.0000E-05  1.0000E-05  1.0000E-05  1.0000E-05
       1.0000E-05  1.0000E-05  1.0000E-05  1.0000E-05  1.0000E-05  1.0000E-05  1.0000E-05   0.000       0.000       0.000    
        0.000       0.000       0.000       0.000       0.000       0.000    
  44    0.000       0.000       0.000       0.000       0.000       0.000       0.000       0.000       0.000       0.000    
        0.000       0.000       0.000       0.000       0.000       0.000       0.000       0.000       0.000       0.000    
        0.000       0.000       0.000       0.000       0.000       0.000      1.0000E-05  1.0000E-05  1.0000E-05  1.0000E-05
       1.0000E-05  1.0000E-05  1.0000E-05  1.0000E-05  1.0000E-05  1.0000E-05  1.0000E-05  1.0000E-05  1.0000E-05  1.0000E-05
       1.0000E-05  1.0000E-05  1.0000E-05  1.0000E-05  1.0000E-05  1.0000E-05  1.0000E-05  1.0000E-05  1.0000E-05  1.0000E-05
       1.0000E-05  1.0000E-05  1.0000E-05  1.0000E-05  1.0000E-05  1.0000E-05  1.0000E-05  1.0000E-05  1.0000E-05  1.0000E-05
       1.0000E-05  1.0000E-05  1.0000E-05  1.0000E-05  1.0000E-05  1.0000E-05  1.0000E-05   0.000       0.000       0.000    
        0.000       0.000       0.000       0.000       0.000       0.000    
  45    0.000       0.000       0.000       0.000       0.000       0.000       0.000       0.000       0.000       0.000    
        0.000       0.000       0.000       0.000       0.000       0.000       0.000       0.000       0.000       0.000    
        0.000       0.000       0.000       0.000       0.000      1.0000E-05  1.0000E-05  1.0000E-05  1.0000E-05  1.0000E-05
       1.0000E-05  1.0000E-05  1.0000E-05  1.0000E-05  1.0000E-05  1.0000E-05  1.0000E-05  1.0000E-05  1.0000E-05  1.0000E-05
       1.0000E-05  1.0000E-05  1.0000E-05  1.0000E-05  1.0000E-05  1.0000E-05  1.0000E-05  1.0000E-05  1.0000E-05  1.0000E-05
       1.0000E-05  1.0000E-05  1.0000E-05  1.0000E-05  1.0000E-05  1.0000E-05  1.0000E-05  1.0000E-05  1.0000E-05  1.0000E-05
       1.0000E-05  1.0000E-05  1.0000E-05  1.0000E-05  1.0000E-05  1.0000E-05  1.0000E-05  1.0000E-05   0.000       0.000    
        0.000       0.000       0.000       0.000       0.000       0.000    
  46    0.000       0.000       0.000       0.000       0.000       0.000       0.000       0.000       0.000       0.000    
        0.000       0.000       0.000       0.000       0.000       0.000       0.000       0.000       0.000       0.000    
        0.000       0.000       0.000       0.000       0.000      1.0000E-05  1.0000E-05  1.0000E-05  1.0000E-05  1.0000E-05
       1.0000E-05  1.0000E-05  1.0000E-05  1.0000E-05  1.0000E-05  1.0000E-05  1.0000E-05  1.0000E-05  1.0000E-05  1.0000E-05
       1.0000E-05  1.0000E-05  1.0000E-05  1.0000E-05  1.0000E-05  1.0000E-05  1.0000E-05  1.0000E-05  1.0000E-05  1.0000E-05
       1.0000E-05  1.0000E-05  1.0000E-05  1.0000E-05  1.0000E-05  1.0000E-05  1.0000E-05  1.0000E-05  1.0000E-05  1.0000E-05
       1.0000E-05  1.0000E-05  1.0000E-05  1.0000E-05  1.0000E-05  1.0000E-05  1.0000E-05  1.0000E-05   0.000       0.000    
        0.000       0.000       0.000       0.000       0.000       0.000    
  47    0.000       0.000       0.000       0.000       0.000       0.000       0.000       0.000       0.000       0.000    
        0.000       0.000       0.000       0.000       0.000       0.000       0.000       0.000       0.000       0.000    
        0.000       0.000       0.000       0.000       0.000      1.0000E-05  1.0000E-05  1.0000E-05  1.0000E-05  1.0000E-05
       1.0000E-05  1.0000E-05  1.0000E-05  1.0000E-05  1.0000E-05  1.0000E-05  1.0000E-05  1.0000E-05  1.0000E-05  1.0000E-05
       1.0000E-05  1.0000E-05  1.0000E-05  1.0000E-05  1.0000E-05  1.0000E-05  1.0000E-05  1.0000E-05  1.0000E-05  1.0000E-05
       1.0000E-05  1.0000E-05  1.0000E-05  1.0000E-05  1.0000E-05  1.0000E-05  1.0000E-05  1.0000E-05  1.0000E-05  1.0000E-05
       1.0000E-05  1.0000E-05  1.0000E-05  1.0000E-05  1.0000E-05  1.0000E-05  1.0000E-05  1.0000E-05   0.000       0.000    
        0.000       0.000       0.000       0.000       0.000       0.000    
  48    0.000       0.000       0.000       0.000       0.000       0.000       0.000       0.000       0.000       0.000    
        0.000       0.000       0.000       0.000       0.000       0.000       0.000       0.000       0.000       0.000    
        0.000       0.000       0.000       0.000       0.000      1.0000E-05  1.0000E-05  1.0000E-05  1.0000E-05  1.0000E-05
       1.0000E-05  1.0000E-05  1.0000E-05  1.0000E-05  1.0000E-05  1.0000E-05  1.0000E-05  1.0000E-05  1.0000E-05  1.0000E-05
       1.0000E-05  1.0000E-05  1.0000E-05  1.0000E-05  1.0000E-05  1.0000E-05  1.0000E-05  1.0000E-05  1.0000E-05  1.0000E-05
       1.0000E-05  1.0000E-05  1.0000E-05  1.0000E-05  1.0000E-05  1.0000E-05  1.0000E-05  1.0000E-05  1.0000E-05  1.0000E-05
       1.0000E-05  1.0000E-05  1.0000E-05  1.0000E-05  1.0000E-05  1.0000E-05   0.000       0.000       0.000       0.000    
        0.000       0.000       0.000       0.000       0.000       0.000    
  49    0.000       0.000       0.000       0.000       0.000       0.000       0.000       0.000       0.000       0.000    
        0.000       0.000       0.000       0.000       0.000       0.000       0.000       0.000       0.000       0.000    
        0.000       0.000       0.000       0.000       0.000      1.0000E-05  1.0000E-05  1.0000E-05  1.0000E-05  1.0000E-05
       1.0000E-05  1.0000E-05  1.0000E-05  1.0000E-05  1.0000E-05  1.0000E-05  1.0000E-05  1.0000E-05  1.0000E-05  1.0000E-05
       1.0000E-05  1.0000E-05  1.0000E-05  1.0000E-05  1.0000E-05  1.0000E-05  1.0000E-05  1.0000E-05  1.0000E-05  1.0000E-05
       1.0000E-05  1.0000E-05  1.0000E-05  1.0000E-05  1.0000E-05  1.0000E-05  1.0000E-05  1.0000E-05  1.0000E-05  1.0000E-05
       1.0000E-05  1.0000E-05  1.0000E-05  1.0000E-05  1.0000E-05   0.000       0.000       0.000       0.000       0.000    
        0.000       0.000       0.000       0.000       0.000       0.000    
  50    0.000       0.000       0.000       0.000       0.000       0.000       0.000       0.000       0.000       0.000    
        0.000       0.000       0.000       0.000       0.000       0.000       0.000       0.000       0.000       0.000    
        0.000       0.000       0.000       0.000       0.000      1.0000E-05  1.0000E-05  1.0000E-05  1.0000E-05  1.0000E-05
       1.0000E-05  1.0000E-05  1.0000E-05  1.0000E-05  1.0000E-05  1.0000E-05  1.0000E-05  1.0000E-05  1.0000E-05  1.0000E-05
       1.0000E-05  1.0000E-05  1.0000E-05  1.0000E-05  1.0000E-05  1.0000E-05  1.0000E-05  1.0000E-05  1.0000E-05  1.0000E-05
       1.0000E-05  1.0000E-05  1.0000E-05  1.0000E-05  1.0000E-05  1.0000E-05  1.0000E-05  1.0000E-05  1.0000E-05  1.0000E-05
       1.0000E-05  1.0000E-05  1.0000E-05  1.0000E-05   0.000       0.000       0.000       0.000       0.000       0.000    
        0.000       0.000       0.000       0.000       0.000       0.000    
  51    0.000       0.000       0.000       0.000       0.000       0.000       0.000       0.000       0.000       0.000    
        0.000       0.000       0.000       0.000       0.000       0.000       0.000       0.000       0.000       0.000    
        0.000       0.000       0.000       0.000       0.000      1.0000E-05  1.0000E-05  1.0000E-05  1.0000E-05  1.0000E-05
       1.0000E-05  1.0000E-05  1.0000E-05  1.0000E-05  1.0000E-05  1.0000E-05  1.0000E-05  1.0000E-05  1.0000E-05  1.0000E-05
       1.0000E-05  1.0000E-05  1.0000E-05  1.0000E-05  1.0000E-05  1.0000E-05  1.0000E-05  1.0000E-05  1.0000E-05  1.0000E-05
       1.0000E-05  1.0000E-05  1.0000E-05  1.0000E-05  1.0000E-05  1.0000E-05  1.0000E-05  1.0000E-05  1.0000E-05  1.0000E-05
       1.0000E-05  1.0000E-05  1.0000E-05  1.0000E-05   0.000       0.000       0.000       0.000       0.000       0.000    
        0.000       0.000       0.000       0.000       0.000       0.000    
  52    0.000       0.000       0.000       0.000       0.000       0.000       0.000       0.000       0.000       0.000    
        0.000       0.000       0.000       0.000       0.000       0.000       0.000       0.000       0.000       0.000    
        0.000       0.000       0.000       0.000       0.000      1.0000E-05  1.0000E-05  1.0000E-05  1.0000E-05  1.0000E-05
       1.0000E-05  1.0000E-05  1.0000E-05  1.0000E-05  1.0000E-05  1.0000E-05  1.0000E-05  1.0000E-05  1.0000E-05  1.0000E-05
       1.0000E-05  1.0000E-05  1.0000E-05  1.0000E-05  1.0000E-05  1.0000E-05  1.0000E-05  1.0000E-05  1.0000E-05  1.0000E-05
       1.0000E-05  1.0000E-05  1.0000E-05  1.0000E-05  1.0000E-05  1.0000E-05  1.0000E-05  1.0000E-05  1.0000E-05  1.0000E-05
       1.0000E-05  1.0000E-05  1.0000E-05  1.0000E-05   0.000       0.000       0.000       0.000       0.000       0.000    
        0.000       0.000       0.000       0.000       0.000       0.000    
  53    0.000       0.000       0.000       0.000       0.000       0.000       0.000       0.000       0.000       0.000    
        0.000       0.000       0.000       0.000       0.000       0.000       0.000       0.000       0.000       0.000    
        0.000       0.000       0.000       0.000       0.000       0.000       0.000      1.0000E-05  1.0000E-05  1.0000E-05
       1.0000E-05  1.0000E-05  1.0000E-05  1.0000E-05  1.0000E-05  1.0000E-05  1.0000E-05  1.0000E-05  1.0000E-05  1.0000E-05
       1.0000E-05  1.0000E-05  1.0000E-05  1.0000E-05  1.0000E-05  1.0000E-05  1.0000E-05  1.0000E-05  1.0000E-05  1.0000E-05
       1.0000E-05  1.0000E-05  1.0000E-05  1.0000E-05  1.0000E-05  1.0000E-05  1.0000E-05  1.0000E-05  1.0000E-05  1.0000E-05
       1.0000E-05  1.0000E-05  1.0000E-05   0.000       0.000       0.000       0.000       0.000       0.000       0.000    
        0.000       0.000       0.000       0.000       0.000       0.000    
  54    0.000       0.000       0.000       0.000       0.000       0.000       0.000       0.000       0.000       0.000    
        0.000       0.000       0.000       0.000       0.000       0.000       0.000       0.000       0.000       0.000    
        0.000       0.000       0.000       0.000       0.000       0.000      1.0000E-05  1.0000E-05  1.0000E-05  1.0000E-05
       1.0000E-05  1.0000E-05  1.0000E-05  1.0000E-05  1.0000E-05  1.0000E-05  1.0000E-05  1.0000E-05  1.0000E-05  1.0000E-05
       1.0000E-05  1.0000E-05  1.0000E-05  1.0000E-05  1.0000E-05  1.0000E-05  1.0000E-05  1.0000E-05  1.0000E-05  1.0000E-05
       1.0000E-05  1.0000E-05  1.0000E-05  1.0000E-05  1.0000E-05  1.0000E-05  1.0000E-05  1.0000E-05  1.0000E-05  1.0000E-05
       1.0000E-05  1.0000E-05   0.000       0.000       0.000       0.000       0.000       0.000       0.000       0.000    
        0.000       0.000       0.000       0.000       0.000       0.000    
  55    0.000       0.000       0.000       0.000       0.000       0.000       0.000       0.000       0.000       0.000    
        0.000       0.000       0.000       0.000       0.000       0.000       0.000       0.000       0.000       0.000    
        0.000       0.000       0.000       0.000       0.000       0.000      1.0000E-05  1.0000E-05  1.0000E-05  1.0000E-05
       1.0000E-05  1.0000E-05  1.0000E-05  1.0000E-05  1.0000E-05  1.0000E-05  1.0000E-05  1.0000E-05  1.0000E-05  1.0000E-05
       1.0000E-05  1.0000E-05  1.0000E-05  1.0000E-05  1.0000E-05  1.0000E-05  1.0000E-05  1.0000E-05  1.0000E-05  1.0000E-05
       1.0000E-05  1.0000E-05  1.0000E-05  1.0000E-05  1.0000E-05  1.0000E-05  1.0000E-05  1.0000E-05  1.0000E-05  1.0000E-05
       1.0000E-05  1.0000E-05   0.000       0.000       0.000       0.000       0.000       0.000       0.000       0.000    
        0.000       0.000       0.000       0.000       0.000       0.000    
  56    0.000       0.000       0.000       0.000       0.000       0.000       0.000       0.000       0.000       0.000    
        0.000       0.000       0.000       0.000       0.000       0.000       0.000       0.000       0.000       0.000    
        0.000       0.000       0.000       0.000       0.000       0.000      1.0000E-05  1.0000E-05  1.0000E-05  1.0000E-05
       1.0000E-05  1.0000E-05  1.0000E-05  1.0000E-05  1.0000E-05  1.0000E-05  1.0000E-05  1.0000E-05  1.0000E-05  1.0000E-05
       1.0000E-05  1.0000E-05  1.0000E-05  1.0000E-05  1.0000E-05  1.0000E-05  1.0000E-05  1.0000E-05  1.0000E-05  1.0000E-05
       1.0000E-05  1.0000E-05  1.0000E-05  1.0000E-05  1.0000E-05  1.0000E-05  1.0000E-05  1.0000E-05  1.0000E-05  1.0000E-05
       1.0000E-05  1.0000E-05   0.000       0.000       0.000       0.000       0.000       0.000       0.000       0.000    
        0.000       0.000       0.000       0.000       0.000       0.000    
  57    0.000       0.000       0.000       0.000       0.000       0.000       0.000       0.000       0.000       0.000    
        0.000       0.000       0.000       0.000       0.000       0.000       0.000       0.000       0.000       0.000    
        0.000       0.000       0.000       0.000      1.0000E-05  1.0000E-05  1.0000E-05  1.0000E-05  1.0000E-05  1.0000E-05
       1.0000E-05  1.0000E-05  1.0000E-05  1.0000E-05  1.0000E-05  1.0000E-05  1.0000E-05  1.0000E-05  1.0000E-05  1.0000E-05
       1.0000E-05  1.0000E-05  1.0000E-05  1.0000E-05  1.0000E-05  1.0000E-05  1.0000E-05  1.0000E-05  1.0000E-05  1.0000E-05
       1.0000E-05  1.0000E-05  1.0000E-05  1.0000E-05  1.0000E-05  1.0000E-05  1.0000E-05  1.0000E-05  1.0000E-05  1.0000E-05
       1.0000E-05  1.0000E-05   0.000       0.000       0.000       0.000       0.000       0.000       0.000       0.000    
        0.000       0.000       0.000       0.000       0.000       0.000    
  58    0.000       0.000       0.000       0.000       0.000       0.000       0.000       0.000       0.000       0.000    
        0.000       0.000       0.000       0.000       0.000       0.000       0.000       0.000       0.000       0.000    
        0.000       0.000       0.000       0.000      1.0000E-05  1.0000E-05  1.0000E-05  1.0000E-05  1.0000E-05  1.0000E-05
       1.0000E-05  1.0000E-05  1.0000E-05  1.0000E-05  1.0000E-05  1.0000E-05  1.0000E-05  1.0000E-05  1.0000E-05  1.0000E-05
       1.0000E-05  1.0000E-05  1.0000E-05  1.0000E-05  1.0000E-05  1.0000E-05  1.0000E-05  1.0000E-05  1.0000E-05  1.0000E-05
       1.0000E-05  1.0000E-05  1.0000E-05  1.0000E-05  1.0000E-05  1.0000E-05  1.0000E-05  1.0000E-05  1.0000E-05  1.0000E-05
       1.0000E-05  1.0000E-05   0.000       0.000       0.000       0.000       0.000       0.000       0.000       0.000    
        0.000       0.000       0.000       0.000       0.000       0.000    
  59    0.000       0.000       0.000       0.000       0.000       0.000       0.000       0.000       0.000       0.000    
        0.000       0.000       0.000       0.000       0.000       0.000       0.000       0.000       0.000       0.000    
        0.000       0.000       0.000      1.0000E-05  1.0000E-05  1.0000E-05  1.0000E-05  1.0000E-05  1.0000E-05  1.0000E-05
       1.0000E-05  1.0000E-05  1.0000E-05  1.0000E-05  1.0000E-05  1.0000E-05  1.0000E-05  1.0000E-05  1.0000E-05  1.0000E-05
       1.0000E-05  1.0000E-05  1.0000E-05  1.0000E-05  1.0000E-05  1.0000E-05  1.0000E-05  1.0000E-05  1.0000E-05  1.0000E-05
       1.0000E-05  1.0000E-05  1.0000E-05  1.0000E-05  1.0000E-05  1.0000E-05  1.0000E-05  1.0000E-05  1.0000E-05  1.0000E-05
       1.0000E-05   0.000       0.000       0.000       0.000       0.000       0.000       0.000       0.000       0.000    
        0.000       0.000       0.000       0.000       0.000       0.000    
  60    0.000       0.000       0.000       0.000       0.000       0.000       0.000       0.000       0.000       0.000    
        0.000       0.000       0.000       0.000       0.000       0.000       0.000       0.000       0.000       0.000    
        0.000       0.000       0.000      1.0000E-05  1.0000E-05  1.0000E-05  1.0000E-05  1.0000E-05  1.0000E-05  1.0000E-05
       1.0000E-05  1.0000E-05  1.0000E-05  1.0000E-05  1.0000E-05  1.0000E-05  1.0000E-05  1.0000E-05  1.0000E-05  1.0000E-05
       1.0000E-05  1.0000E-05  1.0000E-05  1.0000E-05  1.0000E-05  1.0000E-05  1.0000E-05  1.0000E-05  1.0000E-05  1.0000E-05
       1.0000E-05  1.0000E-05  1.0000E-05  1.0000E-05  1.0000E-05  1.0000E-05  1.0000E-05  1.0000E-05  1.0000E-05  1.0000E-05
        0.000       0.000       0.000       0.000       0.000       0.000       0.000       0.000       0.000       0.000    
        0.000       0.000       0.000       0.000       0.000       0.000    
  61    0.000       0.000       0.000       0.000       0.000       0.000       0.000       0.000       0.000       0.000    
        0.000       0.000       0.000       0.000       0.000       0.000       0.000       0.000       0.000       0.000    
        0.000       0.000       0.000      1.0000E-05  1.0000E-05  1.0000E-05  1.0000E-05  1.0000E-05  1.0000E-05  1.0000E-05
       1.0000E-05  1.0000E-05  1.0000E-05  1.0000E-05  1.0000E-05  1.0000E-05  1.0000E-05  1.0000E-05  1.0000E-05  1.0000E-05
       1.0000E-05  1.0000E-05  1.0000E-05  1.0000E-05  1.0000E-05  1.0000E-05  1.0000E-05  1.0000E-05  1.0000E-05  1.0000E-05
       1.0000E-05  1.0000E-05  1.0000E-05  1.0000E-05  1.0000E-05  1.0000E-05  1.0000E-05  1.0000E-05  1.0000E-05  1.0000E-05
        0.000       0.000       0.000       0.000       0.000       0.000       0.000       0.000       0.000       0.000    
        0.000       0.000       0.000       0.000       0.000       0.000    
  62    0.000       0.000       0.000       0.000       0.000       0.000       0.000       0.000       0.000       0.000    
        0.000       0.000       0.000       0.000       0.000       0.000       0.000       0.000       0.000       0.000    
        0.000       0.000       0.000      1.0000E-05  1.0000E-05  1.0000E-05  1.0000E-05  1.0000E-05  1.0000E-05  1.0000E-05
       1.0000E-05  1.0000E-05  1.0000E-05  1.0000E-05  1.0000E-05  1.0000E-05  1.0000E-05  1.0000E-05  1.0000E-05  1.0000E-05
       1.0000E-05  1.0000E-05  1.0000E-05  1.0000E-05  1.0000E-05  1.0000E-05  1.0000E-05  1.0000E-05  1.0000E-05  1.0000E-05
       1.0000E-05  1.0000E-05  1.0000E-05  1.0000E-05  1.0000E-05  1.0000E-05  1.0000E-05  1.0000E-05  1.0000E-05  1.0000E-05
        0.000       0.000       0.000       0.000       0.000       0.000       0.000       0.000       0.000       0.000    
        0.000       0.000       0.000       0.000       0.000       0.000    
  63    0.000       0.000       0.000       0.000       0.000       0.000       0.000       0.000       0.000       0.000    
        0.000       0.000       0.000       0.000       0.000       0.000       0.000       0.000       0.000       0.000    
        0.000       0.000       0.000      1.0000E-05  1.0000E-05  1.0000E-05  1.0000E-05  1.0000E-05  1.0000E-05  1.0000E-05
       1.0000E-05  1.0000E-05  1.0000E-05  1.0000E-05  1.0000E-05  1.0000E-05  1.0000E-05  1.0000E-05  1.0000E-05  1.0000E-05
       1.0000E-05  1.0000E-05  1.0000E-05  1.0000E-05  1.0000E-05  1.0000E-05  1.0000E-05  1.0000E-05  1.0000E-05  1.0000E-05
       1.0000E-05  1.0000E-05  1.0000E-05  1.0000E-05  1.0000E-05  1.0000E-05  1.0000E-05  1.0000E-05  1.0000E-05  1.0000E-05
        0.000       0.000       0.000       0.000       0.000       0.000       0.000       0.000       0.000       0.000    
        0.000       0.000       0.000       0.000       0.000       0.000    
  64    0.000       0.000       0.000       0.000       0.000       0.000       0.000       0.000       0.000       0.000    
        0.000       0.000       0.000       0.000       0.000       0.000       0.000       0.000       0.000       0.000    
        0.000       0.000      1.0000E-05  1.0000E-05  1.0000E-05  1.0000E-05  1.0000E-05  1.0000E-05  1.0000E-05  1.0000E-05
       1.0000E-05  1.0000E-05  1.0000E-05  1.0000E-05  1.0000E-05  1.0000E-05  1.0000E-05  1.0000E-05  1.0000E-05  1.0000E-05
       1.0000E-05  1.0000E-05  1.0000E-05  1.0000E-05  1.0000E-05  1.0000E-05  1.0000E-05  1.0000E-05  1.0000E-05  1.0000E-05
       1.0000E-05  1.0000E-05  1.0000E-05  1.0000E-05  1.0000E-05  1.0000E-05  1.0000E-05  1.0000E-05  1.0000E-05  1.0000E-05
        0.000       0.000       0.000       0.000       0.000       0.000       0.000       0.000       0.000       0.000    
        0.000       0.000       0.000       0.000       0.000       0.000    
  65    0.000       0.000       0.000       0.000       0.000       0.000       0.000       0.000       0.000       0.000    
        0.000       0.000       0.000       0.000       0.000       0.000       0.000       0.000       0.000       0.000    
        0.000       0.000      1.0000E-05  1.0000E-05  1.0000E-05  1.0000E-05  1.0000E-05  1.0000E-05  1.0000E-05  1.0000E-05
       1.0000E-05  1.0000E-05  1.0000E-05  1.0000E-05  1.0000E-05  1.0000E-05  1.0000E-05  1.0000E-05  1.0000E-05  1.0000E-05
       1.0000E-05  1.0000E-05  1.0000E-05  1.0000E-05  1.0000E-05  1.0000E-05  1.0000E-05  1.0000E-05  1.0000E-05  1.0000E-05
       1.0000E-05  1.0000E-05  1.0000E-05  1.0000E-05  1.0000E-05  1.0000E-05  1.0000E-05  1.0000E-05   0.000       0.000    
        0.000       0.000       0.000       0.000       0.000       0.000       0.000       0.000       0.000       0.000    
        0.000       0.000       0.000       0.000       0.000       0.000    
  66    0.000       0.000       0.000       0.000       0.000       0.000       0.000       0.000       0.000       0.000    
        0.000       0.000       0.000       0.000       0.000       0.000       0.000       0.000       0.000       0.000    
        0.000       0.000      1.0000E-05  1.0000E-05  1.0000E-05  1.0000E-05  1.0000E-05  1.0000E-05  1.0000E-05  1.0000E-05
       1.0000E-05  1.0000E-05  1.0000E-05  1.0000E-05  1.0000E-05  1.0000E-05  1.0000E-05  1.0000E-05  1.0000E-05  1.0000E-05
       1.0000E-05  1.0000E-05  1.0000E-05  1.0000E-05  1.0000E-05  1.0000E-05  1.0000E-05  1.0000E-05  1.0000E-05  1.0000E-05
       1.0000E-05  1.0000E-05  1.0000E-05  1.0000E-05  1.0000E-05  1.0000E-05  1.0000E-05   0.000       0.000       0.000    
        0.000       0.000       0.000       0.000       0.000       0.000       0.000       0.000       0.000       0.000    
        0.000       0.000       0.000       0.000       0.000       0.000    
  67    0.000       0.000       0.000       0.000       0.000       0.000       0.000       0.000       0.000       0.000    
        0.000       0.000       0.000       0.000       0.000       0.000       0.000       0.000       0.000       0.000    
        0.000       0.000       0.000      1.0000E-05  1.0000E-05  1.0000E-05  1.0000E-05  1.0000E-05  1.0000E-05  1.0000E-05
       1.0000E-05  1.0000E-05  1.0000E-05  1.0000E-05  1.0000E-05  1.0000E-05  1.0000E-05  1.0000E-05  1.0000E-05  1.0000E-05
       1.0000E-05  1.0000E-05  1.0000E-05  1.0000E-05  1.0000E-05  1.0000E-05  1.0000E-05  1.0000E-05  1.0000E-05  1.0000E-05
       1.0000E-05  1.0000E-05  1.0000E-05  1.0000E-05  1.0000E-05  1.0000E-05   0.000       0.000       0.000       0.000    
        0.000       0.000       0.000       0.000       0.000       0.000       0.000       0.000       0.000       0.000    
        0.000       0.000       0.000       0.000       0.000       0.000    
  68    0.000       0.000       0.000       0.000       0.000       0.000       0.000       0.000       0.000       0.000    
        0.000       0.000       0.000       0.000       0.000       0.000       0.000       0.000       0.000       0.000    
        0.000       0.000       0.000      1.0000E-05  1.0000E-05  1.0000E-05  1.0000E-05  1.0000E-05  1.0000E-05  1.0000E-05
       1.0000E-05  1.0000E-05  1.0000E-05  1.0000E-05  1.0000E-05  1.0000E-05  1.0000E-05  1.0000E-05  1.0000E-05  1.0000E-05
       1.0000E-05  1.0000E-05  1.0000E-05  1.0000E-05  1.0000E-05  1.0000E-05  1.0000E-05  1.0000E-05  1.0000E-05  1.0000E-05
       1.0000E-05  1.0000E-05  1.0000E-05  1.0000E-05  1.0000E-05  1.0000E-05   0.000       0.000       0.000       0.000    
        0.000       0.000       0.000       0.000       0.000       0.000       0.000       0.000       0.000       0.000    
        0.000       0.000       0.000       0.000       0.000       0.000    
  69    0.000       0.000       0.000       0.000       0.000       0.000       0.000       0.000       0.000       0.000    
        0.000       0.000       0.000       0.000       0.000       0.000       0.000       0.000       0.000       0.000    
        0.000       0.000       0.000      1.0000E-05  1.0000E-05  1.0000E-05  1.0000E-05  1.0000E-05  1.0000E-05  1.0000E-05
       1.0000E-05  1.0000E-05  1.0000E-05  1.0000E-05  1.0000E-05  1.0000E-05  1.0000E-05  1.0000E-05  1.0000E-05  1.0000E-05
       1.0000E-05  1.0000E-05  1.0000E-05  1.0000E-05  1.0000E-05  1.0000E-05  1.0000E-05  1.0000E-05  1.0000E-05  1.0000E-05
       1.0000E-05  1.0000E-05  1.0000E-05  1.0000E-05   0.000       0.000       0.000       0.000       0.000       0.000    
        0.000       0.000       0.000       0.000       0.000       0.000       0.000       0.000       0.000       0.000    
        0.000       0.000       0.000       0.000       0.000       0.000    
  70    0.000       0.000       0.000       0.000       0.000       0.000       0.000       0.000       0.000       0.000    
        0.000       0.000       0.000       0.000       0.000       0.000       0.000       0.000       0.000       0.000    
        0.000       0.000       0.000      1.0000E-05  1.0000E-05  1.0000E-05  1.0000E-05  1.0000E-05  1.0000E-05  1.0000E-05
       1.0000E-05  1.0000E-05  1.0000E-05  1.0000E-05  1.0000E-05  1.0000E-05  1.0000E-05  1.0000E-05  1.0000E-05  1.0000E-05
       1.0000E-05  1.0000E-05  1.0000E-05  1.0000E-05  1.0000E-05  1.0000E-05  1.0000E-05  1.0000E-05  1.0000E-05  1.0000E-05
       1.0000E-05  1.0000E-05  1.0000E-05  1.0000E-05   0.000       0.000       0.000       0.000       0.000       0.000    
        0.000       0.000       0.000       0.000       0.000       0.000       0.000       0.000       0.000       0.000    
        0.000       0.000       0.000       0.000       0.000       0.000    
  71    0.000       0.000       0.000       0.000       0.000       0.000       0.000       0.000       0.000       0.000    
        0.000       0.000       0.000       0.000       0.000       0.000       0.000       0.000       0.000       0.000    
        0.000       0.000       0.000      1.0000E-05  1.0000E-05  1.0000E-05  1.0000E-05  1.0000E-05  1.0000E-05  1.0000E-05
       1.0000E-05  1.0000E-05  1.0000E-05  1.0000E-05  1.0000E-05  1.0000E-05  1.0000E-05  1.0000E-05  1.0000E-05  1.0000E-05
       1.0000E-05  1.0000E-05  1.0000E-05  1.0000E-05  1.0000E-05  1.0000E-05  1.0000E-05  1.0000E-05  1.0000E-05  1.0000E-05
       1.0000E-05  1.0000E-05   0.000       0.000       0.000       0.000       0.000       0.000       0.000       0.000    
        0.000       0.000       0.000       0.000       0.000       0.000       0.000       0.000       0.000       0.000    
        0.000       0.000       0.000       0.000       0.000       0.000    
  72    0.000       0.000       0.000       0.000       0.000       0.000       0.000       0.000       0.000       0.000    
        0.000       0.000       0.000       0.000       0.000       0.000       0.000       0.000       0.000       0.000    
        0.000       0.000       0.000      1.0000E-05  1.0000E-05  1.0000E-05  1.0000E-05  1.0000E-05  1.0000E-05  1.0000E-05
       1.0000E-05  1.0000E-05  1.0000E-05  1.0000E-05  1.0000E-05  1.0000E-05  1.0000E-05  1.0000E-05  1.0000E-05  1.0000E-05
       1.0000E-05  1.0000E-05  1.0000E-05  1.0000E-05  1.0000E-05  1.0000E-05  1.0000E-05  1.0000E-05  1.0000E-05  1.0000E-05
       1.0000E-05  1.0000E-05  1.0000E-05   0.000       0.000       0.000       0.000       0.000       0.000       0.000    
        0.000       0.000       0.000       0.000       0.000       0.000       0.000       0.000       0.000       0.000    
        0.000       0.000       0.000       0.000       0.000       0.000    
  73    0.000       0.000       0.000       0.000       0.000       0.000       0.000       0.000       0.000       0.000    
        0.000       0.000       0.000       0.000       0.000       0.000       0.000       0.000       0.000       0.000    
        0.000       0.000       0.000      1.0000E-05  1.0000E-05  1.0000E-05  1.0000E-05  1.0000E-05  1.0000E-05  1.0000E-05
       1.0000E-05  1.0000E-05  1.0000E-05  1.0000E-05  1.0000E-05  1.0000E-05  1.0000E-05  1.0000E-05  1.0000E-05  1.0000E-05
       1.0000E-05  1.0000E-05  1.0000E-05  1.0000E-05  1.0000E-05  1.0000E-05  1.0000E-05  1.0000E-05  1.0000E-05  1.0000E-05
       1.0000E-05  1.0000E-05   0.000       0.000       0.000       0.000       0.000       0.000       0.000       0.000    
        0.000       0.000       0.000       0.000       0.000       0.000       0.000       0.000       0.000       0.000    
        0.000       0.000       0.000       0.000       0.000       0.000    
  74    0.000       0.000       0.000       0.000       0.000       0.000       0.000       0.000       0.000       0.000    
        0.000       0.000       0.000       0.000       0.000       0.000       0.000       0.000       0.000       0.000    
        0.000       0.000       0.000      1.0000E-05  1.0000E-05  1.0000E-05  1.0000E-05  1.0000E-05  1.0000E-05  1.0000E-05
       1.0000E-05  1.0000E-05  1.0000E-05  1.0000E-05  1.0000E-05  1.0000E-05  1.0000E-05  1.0000E-05  1.0000E-05  1.0000E-05
       1.0000E-05  1.0000E-05  1.0000E-05  1.0000E-05  1.0000E-05  1.0000E-05  1.0000E-05  1.0000E-05  1.0000E-05  1.0000E-05
       1.0000E-05  1.0000E-05   0.000       0.000       0.000       0.000       0.000       0.000       0.000       0.000    
        0.000       0.000       0.000       0.000       0.000       0.000       0.000       0.000       0.000       0.000    
        0.000       0.000       0.000       0.000       0.000       0.000    
  75    0.000       0.000       0.000       0.000       0.000       0.000       0.000       0.000       0.000       0.000    
        0.000       0.000       0.000       0.000       0.000       0.000       0.000       0.000       0.000       0.000    
        0.000       0.000       0.000      1.0000E-05  1.0000E-05  1.0000E-05  1.0000E-05  1.0000E-05  1.0000E-05  1.0000E-05
       1.0000E-05  1.0000E-05  1.0000E-05  1.0000E-05  1.0000E-05  1.0000E-05  1.0000E-05  1.0000E-05  1.0000E-05  1.0000E-05
       1.0000E-05  1.0000E-05  1.0000E-05  1.0000E-05  1.0000E-05  1.0000E-05  1.0000E-05  1.0000E-05  1.0000E-05  1.0000E-05
       1.0000E-05   0.000       0.000       0.000       0.000       0.000       0.000       0.000       0.000       0.000    
        0.000       0.000       0.000       0.000       0.000       0.000       0.000       0.000       0.000       0.000    
        0.000       0.000       0.000       0.000       0.000       0.000    
  76    0.000       0.000       0.000       0.000       0.000       0.000       0.000       0.000       0.000       0.000    
        0.000       0.000       0.000       0.000       0.000       0.000       0.000       0.000       0.000       0.000    
        0.000       0.000       0.000      1.0000E-05  1.0000E-05  1.0000E-05  1.0000E-05  1.0000E-05  1.0000E-05  1.0000E-05
       1.0000E-05  1.0000E-05  1.0000E-05  1.0000E-05  1.0000E-05  1.0000E-05  1.0000E-05  1.0000E-05  1.0000E-05  1.0000E-05
       1.0000E-05  1.0000E-05  1.0000E-05  1.0000E-05  1.0000E-05  1.0000E-05  1.0000E-05  1.0000E-05  1.0000E-05  1.0000E-05
       1.0000E-05   0.000       0.000       0.000       0.000       0.000       0.000       0.000       0.000       0.000    
        0.000       0.000       0.000       0.000       0.000       0.000       0.000       0.000       0.000       0.000    
        0.000       0.000       0.000       0.000       0.000       0.000    
  77    0.000       0.000       0.000       0.000       0.000       0.000       0.000       0.000       0.000       0.000    
        0.000       0.000       0.000       0.000       0.000       0.000       0.000       0.000       0.000       0.000    
        0.000       0.000       0.000      1.0000E-05  1.0000E-05  1.0000E-05  1.0000E-05  1.0000E-05  1.0000E-05  1.0000E-05
       1.0000E-05  1.0000E-05  1.0000E-05  1.0000E-05  1.0000E-05  1.0000E-05  1.0000E-05  1.0000E-05  1.0000E-05  1.0000E-05
       1.0000E-05  1.0000E-05  1.0000E-05  1.0000E-05  1.0000E-05  1.0000E-05  1.0000E-05  1.0000E-05  1.0000E-05  1.0000E-05
        0.000       0.000       0.000       0.000       0.000       0.000       0.000       0.000       0.000       0.000    
        0.000       0.000       0.000       0.000       0.000       0.000       0.000       0.000       0.000       0.000    
        0.000       0.000       0.000       0.000       0.000       0.000    
  78    0.000       0.000       0.000       0.000       0.000       0.000       0.000       0.000       0.000       0.000    
        0.000       0.000       0.000       0.000       0.000       0.000       0.000       0.000       0.000       0.000    
        0.000       0.000       0.000      1.0000E-05  1.0000E-05  1.0000E-05  1.0000E-05  1.0000E-05  1.0000E-05  1.0000E-05
       1.0000E-05  1.0000E-05  1.0000E-05  1.0000E-05  1.0000E-05  1.0000E-05  1.0000E-05  1.0000E-05  1.0000E-05  1.0000E-05
       1.0000E-05  1.0000E-05  1.0000E-05  1.0000E-05  1.0000E-05  1.0000E-05  1.0000E-05  1.0000E-05  1.0000E-05  1.0000E-05
       1.0000E-05   0.000       0.000       0.000       0.000       0.000       0.000       0.000       0.000       0.000    
        0.000       0.000       0.000       0.000       0.000       0.000       0.000       0.000       0.000       0.000    
        0.000       0.000       0.000       0.000       0.000       0.000    
  79    0.000       0.000       0.000       0.000       0.000       0.000       0.000       0.000       0.000       0.000    
        0.000       0.000       0.000       0.000       0.000       0.000       0.000       0.000       0.000       0.000    
        0.000       0.000       0.000      1.0000E-05  1.0000E-05  1.0000E-05  1.0000E-05  1.0000E-05  1.0000E-05  1.0000E-05
       1.0000E-05  1.0000E-05  1.0000E-05  1.0000E-05  1.0000E-05  1.0000E-05  1.0000E-05  1.0000E-05  1.0000E-05  1.0000E-05
       1.0000E-05  1.0000E-05  1.0000E-05  1.0000E-05  1.0000E-05  1.0000E-05  1.0000E-05  1.0000E-05  1.0000E-05  1.0000E-05
       1.0000E-05   0.000       0.000       0.000       0.000       0.000       0.000       0.000       0.000       0.000    
        0.000       0.000       0.000       0.000       0.000       0.000       0.000       0.000       0.000       0.000    
        0.000       0.000       0.000       0.000       0.000       0.000    
  80    0.000       0.000       0.000       0.000       0.000       0.000       0.000       0.000       0.000       0.000    
        0.000       0.000       0.000       0.000       0.000       0.000       0.000       0.000       0.000       0.000    
        0.000       0.000       0.000      1.0000E-05  1.0000E-05  1.0000E-05  1.0000E-05  1.0000E-05  1.0000E-05  1.0000E-05
       1.0000E-05  1.0000E-05  1.0000E-05  1.0000E-05  1.0000E-05  1.0000E-05  1.0000E-05  1.0000E-05  1.0000E-05  1.0000E-05
       1.0000E-05  1.0000E-05  1.0000E-05  1.0000E-05  1.0000E-05  1.0000E-05  1.0000E-05  1.0000E-05  1.0000E-05  1.0000E-05
       1.0000E-05  1.0000E-05   0.000       0.000       0.000       0.000       0.000       0.000       0.000       0.000    
        0.000       0.000       0.000       0.000       0.000       0.000       0.000       0.000       0.000       0.000    
        0.000       0.000       0.000       0.000       0.000       0.000    
  81    0.000       0.000       0.000       0.000       0.000       0.000       0.000       0.000       0.000       0.000    
        0.000       0.000       0.000       0.000       0.000       0.000       0.000       0.000       0.000       0.000    
        0.000       0.000       0.000       0.000      1.0000E-05  1.0000E-05  1.0000E-05  1.0000E-05  1.0000E-05  1.0000E-05
       1.0000E-05  1.0000E-05  1.0000E-05  1.0000E-05  1.0000E-05  1.0000E-05  1.0000E-05  1.0000E-05  1.0000E-05  1.0000E-05
       1.0000E-05  1.0000E-05  1.0000E-05  1.0000E-05  1.0000E-05  1.0000E-05  1.0000E-05  1.0000E-05  1.0000E-05  1.0000E-05
       1.0000E-05  1.0000E-05  1.0000E-05   0.000       0.000       0.000       0.000       0.000       0.000       0.000    
        0.000       0.000       0.000       0.000       0.000       0.000       0.000       0.000       0.000       0.000    
        0.000       0.000       0.000       0.000       0.000       0.000    
  82    0.000       0.000       0.000       0.000       0.000       0.000       0.000       0.000       0.000       0.000    
        0.000       0.000       0.000       0.000       0.000       0.000       0.000       0.000       0.000       0.000    
        0.000       0.000       0.000       0.000      1.0000E-05  1.0000E-05  1.0000E-05  1.0000E-05  1.0000E-05  1.0000E-05
       1.0000E-05  1.0000E-05  1.0000E-05  1.0000E-05  1.0000E-05  1.0000E-05  1.0000E-05  1.0000E-05  1.0000E-05  1.0000E-05
       1.0000E-05  1.0000E-05  1.0000E-05  1.0000E-05  1.0000E-05  1.0000E-05  1.0000E-05  1.0000E-05  1.0000E-05  1.0000E-05
       1.0000E-05  1.0000E-05  1.0000E-05   0.000       0.000       0.000       0.000       0.000       0.000       0.000    
        0.000       0.000       0.000       0.000       0.000       0.000       0.000       0.000       0.000       0.000    
        0.000       0.000       0.000       0.000       0.000       0.000    
  83    0.000       0.000       0.000       0.000       0.000       0.000       0.000       0.000       0.000       0.000    
        0.000       0.000       0.000       0.000       0.000       0.000       0.000       0.000       0.000       0.000    
        0.000       0.000       0.000       0.000      1.0000E-05  1.0000E-05  1.0000E-05  1.0000E-05  1.0000E-05  1.0000E-05
       1.0000E-05  1.0000E-05  1.0000E-05  1.0000E-05  1.0000E-05  1.0000E-05  1.0000E-05  1.0000E-05  1.0000E-05  1.0000E-05
       1.0000E-05  1.0000E-05  1.0000E-05  1.0000E-05  1.0000E-05  1.0000E-05  1.0000E-05  1.0000E-05  1.0000E-05  1.0000E-05
       1.0000E-05  1.0000E-05  1.0000E-05   0.000       0.000       0.000       0.000       0.000       0.000       0.000    
        0.000       0.000       0.000       0.000       0.000       0.000       0.000       0.000       0.000       0.000    
        0.000       0.000       0.000       0.000       0.000       0.000    
  84    0.000       0.000       0.000       0.000       0.000       0.000       0.000       0.000       0.000       0.000    
        0.000       0.000       0.000       0.000       0.000       0.000       0.000       0.000       0.000       0.000    
        0.000       0.000       0.000       0.000      1.0000E-05  1.0000E-05  1.0000E-05  1.0000E-05  1.0000E-05  1.0000E-05
       1.0000E-05  1.0000E-05  1.0000E-05  1.0000E-05  1.0000E-05  1.0000E-05  1.0000E-05  1.0000E-05  1.0000E-05  1.0000E-05
       1.0000E-05  1.0000E-05  1.0000E-05  1.0000E-05  1.0000E-05  1.0000E-05  1.0000E-05  1.0000E-05  1.0000E-05  1.0000E-05
       1.0000E-05  1.0000E-05   0.000       0.000       0.000       0.000       0.000       0.000       0.000       0.000    
        0.000       0.000       0.000       0.000       0.000       0.000       0.000       0.000       0.000       0.000    
        0.000       0.000       0.000       0.000       0.000       0.000    
  85    0.000       0.000       0.000       0.000       0.000       0.000       0.000       0.000       0.000       0.000    
        0.000       0.000       0.000       0.000       0.000       0.000       0.000       0.000       0.000       0.000    
        0.000       0.000       0.000       0.000      1.0000E-05  1.0000E-05  1.0000E-05  1.0000E-05  1.0000E-05  1.0000E-05
       1.0000E-05  1.0000E-05  1.0000E-05  1.0000E-05  1.0000E-05  1.0000E-05  1.0000E-05  1.0000E-05  1.0000E-05  1.0000E-05
       1.0000E-05  1.0000E-05  1.0000E-05  1.0000E-05  1.0000E-05  1.0000E-05  1.0000E-05  1.0000E-05  1.0000E-05  1.0000E-05
       1.0000E-05  1.0000E-05   0.000       0.000       0.000       0.000       0.000       0.000       0.000       0.000    
        0.000       0.000       0.000       0.000       0.000       0.000       0.000       0.000       0.000       0.000    
        0.000       0.000       0.000       0.000       0.000       0.000    
  86    0.000       0.000       0.000       0.000       0.000       0.000       0.000       0.000       0.000       0.000    
        0.000       0.000       0.000       0.000       0.000       0.000       0.000       0.000       0.000       0.000    
        0.000       0.000       0.000       0.000      1.0000E-05  1.0000E-05  1.0000E-05  1.0000E-05  1.0000E-05  1.0000E-05
       1.0000E-05  1.0000E-05  1.0000E-05  1.0000E-05  1.0000E-05  1.0000E-05  1.0000E-05  1.0000E-05  1.0000E-05  1.0000E-05
       1.0000E-05  1.0000E-05  1.0000E-05  1.0000E-05  1.0000E-05  1.0000E-05  1.0000E-05  1.0000E-05  1.0000E-05  1.0000E-05
       1.0000E-05  1.0000E-05   0.000       0.000       0.000       0.000       0.000       0.000       0.000       0.000    
        0.000       0.000       0.000       0.000       0.000       0.000       0.000       0.000       0.000       0.000    
        0.000       0.000       0.000       0.000       0.000       0.000    
  87    0.000       0.000       0.000       0.000       0.000       0.000       0.000       0.000       0.000       0.000    
        0.000       0.000       0.000       0.000       0.000       0.000       0.000       0.000       0.000       0.000    
        0.000       0.000       0.000       0.000      1.0000E-05  1.0000E-05  1.0000E-05  1.0000E-05  1.0000E-05  1.0000E-05
       1.0000E-05  1.0000E-05  1.0000E-05  1.0000E-05  1.0000E-05  1.0000E-05  1.0000E-05  1.0000E-05  1.0000E-05  1.0000E-05
       1.0000E-05  1.0000E-05  1.0000E-05  1.0000E-05  1.0000E-05  1.0000E-05  1.0000E-05  1.0000E-05  1.0000E-05  1.0000E-05
       1.0000E-05  1.0000E-05   0.000       0.000       0.000       0.000       0.000       0.000       0.000       0.000    
        0.000       0.000       0.000       0.000       0.000       0.000       0.000       0.000       0.000       0.000    
        0.000       0.000       0.000       0.000       0.000       0.000    
  88    0.000       0.000       0.000       0.000       0.000       0.000       0.000       0.000       0.000       0.000    
        0.000       0.000       0.000       0.000       0.000       0.000       0.000       0.000       0.000       0.000    
        0.000       0.000       0.000       0.000      1.0000E-05  1.0000E-05  1.0000E-05  1.0000E-05  1.0000E-05  1.0000E-05
       1.0000E-05  1.0000E-05  1.0000E-05  1.0000E-05  1.0000E-05  1.0000E-05  1.0000E-05  1.0000E-05  1.0000E-05  1.0000E-05
       1.0000E-05  1.0000E-05  1.0000E-05  1.0000E-05  1.0000E-05  1.0000E-05  1.0000E-05  1.0000E-05  1.0000E-05  1.0000E-05
       1.0000E-05   0.000       0.000       0.000       0.000       0.000       0.000       0.000       0.000       0.000    
        0.000       0.000       0.000       0.000       0.000       0.000       0.000       0.000       0.000       0.000    
        0.000       0.000       0.000       0.000       0.000       0.000    
  89    0.000       0.000       0.000       0.000       0.000       0.000       0.000       0.000       0.000       0.000    
        0.000       0.000       0.000       0.000       0.000       0.000       0.000       0.000       0.000       0.000    
        0.000       0.000       0.000       0.000      1.0000E-05  1.0000E-05  1.0000E-05  1.0000E-05  1.0000E-05  1.0000E-05
       1.0000E-05  1.0000E-05  1.0000E-05  1.0000E-05  1.0000E-05  1.0000E-05  1.0000E-05  1.0000E-05  1.0000E-05  1.0000E-05
       1.0000E-05  1.0000E-05  1.0000E-05  1.0000E-05  1.0000E-05  1.0000E-05  1.0000E-05  1.0000E-05  1.0000E-05  1.0000E-05
        0.000       0.000       0.000       0.000       0.000       0.000       0.000       0.000       0.000       0.000    
        0.000       0.000       0.000       0.000       0.000       0.000       0.000       0.000       0.000       0.000    
        0.000       0.000       0.000       0.000       0.000       0.000    
  90    0.000       0.000       0.000       0.000       0.000       0.000       0.000       0.000       0.000       0.000    
        0.000       0.000       0.000       0.000       0.000       0.000       0.000       0.000       0.000       0.000    
        0.000       0.000       0.000       0.000       0.000      1.0000E-05  1.0000E-05  1.0000E-05  1.0000E-05  1.0000E-05
       1.0000E-05  1.0000E-05  1.0000E-05  1.0000E-05  1.0000E-05  1.0000E-05  1.0000E-05  1.0000E-05  1.0000E-05  1.0000E-05
       1.0000E-05  1.0000E-05  1.0000E-05  1.0000E-05  1.0000E-05  1.0000E-05  1.0000E-05  1.0000E-05  1.0000E-05   0.000    
        0.000       0.000       0.000       0.000       0.000       0.000       0.000       0.000       0.000       0.000    
        0.000       0.000       0.000       0.000       0.000       0.000       0.000       0.000       0.000       0.000    
        0.000       0.000       0.000       0.000       0.000       0.000    
  91    0.000       0.000       0.000       0.000       0.000       0.000       0.000       0.000       0.000       0.000    
        0.000       0.000       0.000       0.000       0.000       0.000       0.000       0.000       0.000       0.000    
        0.000       0.000       0.000       0.000      1.0000E-05  1.0000E-05  1.0000E-05  1.0000E-05  1.0000E-05  1.0000E-05
       1.0000E-05  1.0000E-05  1.0000E-05  1.0000E-05  1.0000E-05  1.0000E-05  1.0000E-05  1.0000E-05  1.0000E-05  1.0000E-05
       1.0000E-05  1.0000E-05  1.0000E-05  1.0000E-05  1.0000E-05  1.0000E-05  1.0000E-05  1.0000E-05  1.0000E-05   0.000    
        0.000       0.000       0.000       0.000       0.000       0.000       0.000       0.000       0.000       0.000    
        0.000       0.000       0.000       0.000       0.000       0.000       0.000       0.000       0.000       0.000    
        0.000       0.000       0.000       0.000       0.000       0.000    
  92    0.000       0.000       0.000       0.000       0.000       0.000       0.000       0.000       0.000       0.000    
        0.000       0.000       0.000       0.000       0.000       0.000       0.000       0.000       0.000       0.000    
        0.000       0.000       0.000       0.000      1.0000E-05  1.0000E-05  1.0000E-05  1.0000E-05  1.0000E-05  1.0000E-05
       1.0000E-05  1.0000E-05  1.0000E-05  1.0000E-05  1.0000E-05  1.0000E-05  1.0000E-05  1.0000E-05  1.0000E-05  1.0000E-05
       1.0000E-05  1.0000E-05  1.0000E-05  1.0000E-05  1.0000E-05  1.0000E-05  1.0000E-05  1.0000E-05   0.000       0.000    
        0.000       0.000       0.000       0.000       0.000       0.000       0.000       0.000       0.000       0.000    
        0.000       0.000       0.000       0.000       0.000       0.000       0.000       0.000       0.000       0.000    
        0.000       0.000       0.000       0.000       0.000       0.000    
  93    0.000       0.000       0.000       0.000       0.000       0.000       0.000       0.000       0.000       0.000    
        0.000       0.000       0.000       0.000       0.000       0.000       0.000       0.000       0.000       0.000    
        0.000       0.000       0.000       0.000       0.000      1.0000E-05  1.0000E-05  1.0000E-05  1.0000E-05  1.0000E-05
       1.0000E-05  1.0000E-05  1.0000E-05  1.0000E-05  1.0000E-05  1.0000E-05  1.0000E-05  1.0000E-05  1.0000E-05  1.0000E-05
       1.0000E-05  1.0000E-05  1.0000E-05  1.0000E-05  1.0000E-05  1.0000E-05  1.0000E-05  1.0000E-05   0.000       0.000    
        0.000       0.000       0.000       0.000       0.000       0.000       0.000       0.000       0.000       0.000    
        0.000       0.000       0.000       0.000       0.000       0.000       0.000       0.000       0.000       0.000    
        0.000       0.000       0.000       0.000       0.000       0.000    
  94    0.000       0.000       0.000       0.000       0.000       0.000       0.000       0.000       0.000       0.000    
        0.000       0.000       0.000       0.000       0.000       0.000       0.000       0.000       0.000       0.000    
        0.000       0.000       0.000       0.000       0.000      1.0000E-05  1.0000E-05  1.0000E-05  1.0000E-05  1.0000E-05
       1.0000E-05  1.0000E-05  1.0000E-05  1.0000E-05  1.0000E-05  1.0000E-05  1.0000E-05  1.0000E-05  1.0000E-05  1.0000E-05
       1.0000E-05  1.0000E-05  1.0000E-05  1.0000E-05  1.0000E-05  1.0000E-05  1.0000E-05  1.0000E-05  1.0000E-05   0.000    
        0.000       0.000       0.000       0.000       0.000       0.000       0.000       0.000       0.000       0.000    
        0.000       0.000       0.000       0.000       0.000       0.000       0.000       0.000       0.000       0.000    
        0.000       0.000       0.000       0.000       0.000       0.000    
  95    0.000       0.000       0.000       0.000       0.000       0.000       0.000       0.000       0.000       0.000    
        0.000       0.000       0.000       0.000       0.000       0.000       0.000       0.000       0.000       0.000    
        0.000       0.000       0.000       0.000       0.000      1.0000E-05  1.0000E-05  1.0000E-05  1.0000E-05  1.0000E-05
       1.0000E-05  1.0000E-05  1.0000E-05  1.0000E-05  1.0000E-05  1.0000E-05  1.0000E-05  1.0000E-05  1.0000E-05  1.0000E-05
       1.0000E-05  1.0000E-05  1.0000E-05  1.0000E-05  1.0000E-05  1.0000E-05  1.0000E-05  1.0000E-05  1.0000E-05   0.000    
        0.000       0.000       0.000       0.000       0.000       0.000       0.000       0.000       0.000       0.000    
        0.000       0.000       0.000       0.000       0.000       0.000       0.000       0.000       0.000       0.000    
        0.000       0.000       0.000       0.000       0.000       0.000    
  96    0.000       0.000       0.000       0.000       0.000       0.000       0.000       0.000       0.000       0.000    
        0.000       0.000       0.000       0.000       0.000       0.000       0.000       0.000       0.000       0.000    
        0.000       0.000       0.000       0.000       0.000      1.0000E-05  1.0000E-05  1.0000E-05  1.0000E-05  1.0000E-05
       1.0000E-05  1.0000E-05  1.0000E-05  1.0000E-05  1.0000E-05  1.0000E-05  1.0000E-05  1.0000E-05  1.0000E-05  1.0000E-05
       1.0000E-05  1.0000E-05  1.0000E-05  1.0000E-05  1.0000E-05  1.0000E-05  1.0000E-05  1.0000E-05   0.000       0.000    
        0.000       0.000       0.000       0.000       0.000       0.000       0.000       0.000       0.000       0.000    
        0.000       0.000       0.000       0.000       0.000       0.000       0.000       0.000       0.000       0.000    
        0.000       0.000       0.000       0.000       0.000       0.000    
  97    0.000       0.000       0.000       0.000       0.000       0.000       0.000       0.000       0.000       0.000    
        0.000       0.000       0.000       0.000       0.000       0.000       0.000       0.000       0.000       0.000    
        0.000       0.000       0.000       0.000       0.000      1.0000E-05  1.0000E-05  1.0000E-05  1.0000E-05  1.0000E-05
       1.0000E-05  1.0000E-05  1.0000E-05  1.0000E-05  1.0000E-05  1.0000E-05  1.0000E-05  1.0000E-05  1.0000E-05  1.0000E-05
       1.0000E-05  1.0000E-05  1.0000E-05  1.0000E-05   0.000      1.0000E-05  1.0000E-05  1.0000E-05   0.000       0.000    
        0.000       0.000       0.000       0.000       0.000       0.000       0.000       0.000       0.000       0.000    
        0.000       0.000       0.000       0.000       0.000       0.000       0.000       0.000       0.000       0.000    
        0.000       0.000       0.000       0.000       0.000       0.000    
  98    0.000       0.000       0.000       0.000       0.000       0.000       0.000       0.000       0.000       0.000    
        0.000       0.000       0.000       0.000       0.000       0.000       0.000       0.000       0.000       0.000    
        0.000       0.000       0.000       0.000      1.0000E-05  1.0000E-05  1.0000E-05  1.0000E-05  1.0000E-05  1.0000E-05
       1.0000E-05  1.0000E-05  1.0000E-05  1.0000E-05  1.0000E-05  1.0000E-05  1.0000E-05  1.0000E-05  1.0000E-05  1.0000E-05
       1.0000E-05   0.000       0.000       0.000       0.000       0.000       0.000       0.000       0.000       0.000    
        0.000       0.000       0.000       0.000       0.000       0.000       0.000       0.000       0.000       0.000    
        0.000       0.000       0.000       0.000       0.000       0.000       0.000       0.000       0.000       0.000    
        0.000       0.000       0.000       0.000       0.000       0.000    
  99    0.000       0.000       0.000       0.000       0.000       0.000       0.000       0.000       0.000       0.000    
        0.000       0.000       0.000       0.000       0.000       0.000       0.000       0.000       0.000       0.000    
        0.000       0.000       0.000       0.000      1.0000E-05  1.0000E-05  1.0000E-05  1.0000E-05  1.0000E-05  1.0000E-05
       1.0000E-05  1.0000E-05  1.0000E-05  1.0000E-05  1.0000E-05  1.0000E-05  1.0000E-05  1.0000E-05  1.0000E-05  1.0000E-05
       1.0000E-05  1.0000E-05   0.000       0.000       0.000       0.000       0.000       0.000       0.000       0.000    
        0.000       0.000       0.000       0.000       0.000       0.000       0.000       0.000       0.000       0.000    
        0.000       0.000       0.000       0.000       0.000       0.000       0.000       0.000       0.000       0.000    
        0.000       0.000       0.000       0.000       0.000       0.000    
 100    0.000       0.000       0.000       0.000       0.000       0.000       0.000       0.000       0.000       0.000    
        0.000       0.000       0.000       0.000       0.000       0.000       0.000       0.000       0.000       0.000    
        0.000       0.000       0.000       0.000      1.0000E-05  1.0000E-05  1.0000E-05  1.0000E-05  1.0000E-05  1.0000E-05
       1.0000E-05  1.0000E-05  1.0000E-05  1.0000E-05  1.0000E-05  1.0000E-05  1.0000E-05  1.0000E-05  1.0000E-05  1.0000E-05
       1.0000E-05  1.0000E-05   0.000       0.000       0.000       0.000       0.000       0.000       0.000       0.000    
        0.000       0.000       0.000       0.000       0.000       0.000       0.000       0.000       0.000       0.000    
        0.000       0.000       0.000       0.000       0.000       0.000       0.000       0.000       0.000       0.000    
        0.000       0.000       0.000       0.000       0.000       0.000    
 101    0.000       0.000       0.000       0.000       0.000       0.000       0.000       0.000       0.000       0.000    
        0.000       0.000       0.000       0.000       0.000       0.000       0.000       0.000       0.000       0.000    
        0.000       0.000       0.000      1.0000E-05  1.0000E-05  1.0000E-05  1.0000E-05  1.0000E-05  1.0000E-05  1.0000E-05
       1.0000E-05  1.0000E-05  1.0000E-05  1.0000E-05  1.0000E-05  1.0000E-05  1.0000E-05  1.0000E-05  1.0000E-05  1.0000E-05
       1.0000E-05  1.0000E-05   0.000       0.000       0.000       0.000       0.000       0.000       0.000       0.000    
        0.000       0.000       0.000       0.000       0.000       0.000       0.000       0.000       0.000       0.000    
        0.000       0.000       0.000       0.000       0.000       0.000       0.000       0.000       0.000       0.000    
        0.000       0.000       0.000       0.000       0.000       0.000    
 102    0.000       0.000       0.000       0.000       0.000       0.000       0.000       0.000       0.000       0.000    
        0.000       0.000       0.000       0.000       0.000       0.000       0.000       0.000       0.000       0.000    
        0.000       0.000       0.000      1.0000E-05  1.0000E-05  1.0000E-05  1.0000E-05  1.0000E-05  1.0000E-05  1.0000E-05
       1.0000E-05  1.0000E-05  1.0000E-05  1.0000E-05  1.0000E-05  1.0000E-05  1.0000E-05  1.0000E-05  1.0000E-05  1.0000E-05
       1.0000E-05   0.000       0.000       0.000       0.000       0.000       0.000       0.000       0.000       0.000    
        0.000       0.000       0.000       0.000       0.000       0.000       0.000       0.000       0.000       0.000    
        0.000       0.000       0.000       0.000       0.000       0.000       0.000       0.000       0.000       0.000    
        0.000       0.000       0.000       0.000       0.000       0.000    
 103    0.000       0.000       0.000       0.000       0.000       0.000       0.000       0.000       0.000       0.000    
        0.000       0.000       0.000       0.000       0.000       0.000       0.000       0.000       0.000       0.000    
        0.000       0.000      1.0000E-05  1.0000E-05  1.0000E-05  1.0000E-05  1.0000E-05  1.0000E-05  1.0000E-05  1.0000E-05
       1.0000E-05  1.0000E-05  1.0000E-05  1.0000E-05  1.0000E-05  1.0000E-05  1.0000E-05  1.0000E-05  1.0000E-05  1.0000E-05
       1.0000E-05   0.000       0.000       0.000       0.000       0.000       0.000       0.000       0.000       0.000    
        0.000       0.000       0.000       0.000       0.000       0.000       0.000       0.000       0.000       0.000    
        0.000       0.000       0.000       0.000       0.000       0.000       0.000       0.000       0.000       0.000    
        0.000       0.000       0.000       0.000       0.000       0.000    
 104    0.000       0.000       0.000       0.000       0.000       0.000       0.000       0.000       0.000       0.000    
        0.000       0.000       0.000       0.000       0.000       0.000       0.000       0.000       0.000       0.000    
        0.000      1.0000E-05  1.0000E-05  1.0000E-05  1.0000E-05  1.0000E-05  1.0000E-05  1.0000E-05  1.0000E-05  1.0000E-05
       1.0000E-05  1.0000E-05  1.0000E-05  1.0000E-05  1.0000E-05  1.0000E-05  1.0000E-05  1.0000E-05  1.0000E-05  1.0000E-05
       1.0000E-05   0.000       0.000       0.000       0.000       0.000       0.000       0.000       0.000       0.000    
        0.000       0.000       0.000       0.000       0.000       0.000       0.000       0.000       0.000       0.000    
        0.000       0.000       0.000       0.000       0.000       0.000       0.000       0.000       0.000       0.000    
        0.000       0.000       0.000       0.000       0.000       0.000    
 105    0.000       0.000       0.000       0.000       0.000       0.000       0.000       0.000       0.000       0.000    
        0.000       0.000       0.000       0.000       0.000       0.000       0.000       0.000       0.000       0.000    
        0.000      1.0000E-05  1.0000E-05  1.0000E-05  1.0000E-05  1.0000E-05  1.0000E-05  1.0000E-05  1.0000E-05  1.0000E-05
       1.0000E-05  1.0000E-05  1.0000E-05  1.0000E-05  1.0000E-05  1.0000E-05  1.0000E-05  1.0000E-05  1.0000E-05  1.0000E-05
       1.0000E-05   0.000       0.000       0.000       0.000       0.000       0.000       0.000       0.000       0.000    
        0.000       0.000       0.000       0.000       0.000       0.000       0.000       0.000       0.000       0.000    
        0.000       0.000       0.000       0.000       0.000       0.000       0.000       0.000       0.000       0.000    
        0.000       0.000       0.000       0.000       0.000       0.000    
 106    0.000       0.000       0.000       0.000       0.000       0.000       0.000       0.000       0.000       0.000    
        0.000       0.000       0.000       0.000       0.000       0.000       0.000       0.000       0.000       0.000    
       1.0000E-05  1.0000E-05  1.0000E-05  1.0000E-05  1.0000E-05  1.0000E-05  1.0000E-05  1.0000E-05  1.0000E-05  1.0000E-05
       1.0000E-05  1.0000E-05  1.0000E-05  1.0000E-05  1.0000E-05  1.0000E-05  1.0000E-05  1.0000E-05  1.0000E-05  1.0000E-05
       1.0000E-05   0.000       0.000       0.000       0.000       0.000       0.000       0.000       0.000       0.000    
        0.000       0.000       0.000       0.000       0.000       0.000       0.000       0.000       0.000       0.000    
        0.000       0.000       0.000       0.000       0.000       0.000       0.000       0.000       0.000       0.000    
        0.000       0.000       0.000       0.000       0.000       0.000    
 107    0.000       0.000       0.000       0.000       0.000       0.000       0.000       0.000       0.000       0.000    
        0.000       0.000       0.000       0.000       0.000       0.000       0.000       0.000       0.000       0.000    
       1.0000E-05  1.0000E-05  1.0000E-05  1.0000E-05  1.0000E-05  1.0000E-05  1.0000E-05  1.0000E-05  1.0000E-05  1.0000E-05
       1.0000E-05  1.0000E-05  1.0000E-05  1.0000E-05  1.0000E-05  1.0000E-05  1.0000E-05  1.0000E-05  1.0000E-05  1.0000E-05
       1.0000E-05   0.000       0.000       0.000       0.000       0.000       0.000       0.000       0.000       0.000    
        0.000       0.000       0.000       0.000       0.000       0.000       0.000       0.000       0.000       0.000    
        0.000       0.000       0.000       0.000       0.000       0.000       0.000       0.000       0.000       0.000    
        0.000       0.000       0.000       0.000       0.000       0.000    
 108    0.000       0.000       0.000       0.000       0.000       0.000       0.000       0.000       0.000       0.000    
        0.000       0.000       0.000       0.000       0.000       0.000       0.000       0.000       0.000      1.0000E-05
       1.0000E-05  1.0000E-05  1.0000E-05  1.0000E-05  1.0000E-05  1.0000E-05  1.0000E-05  1.0000E-05  1.0000E-05  1.0000E-05
       1.0000E-05  1.0000E-05  1.0000E-05  1.0000E-05  1.0000E-05  1.0000E-05  1.0000E-05  1.0000E-05  1.0000E-05  1.0000E-05
       1.0000E-05   0.000       0.000       0.000       0.000       0.000       0.000       0.000       0.000       0.000    
        0.000       0.000       0.000       0.000       0.000       0.000       0.000       0.000       0.000       0.000    
        0.000       0.000       0.000       0.000       0.000       0.000       0.000       0.000       0.000       0.000    
        0.000       0.000       0.000       0.000       0.000       0.000    
 109    0.000       0.000       0.000       0.000       0.000       0.000       0.000       0.000       0.000       0.000    
        0.000       0.000       0.000       0.000       0.000       0.000       0.000       0.000       0.000      1.0000E-05
       1.0000E-05  1.0000E-05  1.0000E-05  1.0000E-05  1.0000E-05  1.0000E-05  1.0000E-05  1.0000E-05  1.0000E-05  1.0000E-05
       1.0000E-05  1.0000E-05  1.0000E-05  1.0000E-05  1.0000E-05  1.0000E-05  1.0000E-05  1.0000E-05  1.0000E-05  1.0000E-05
       1.0000E-05   0.000       0.000       0.000       0.000       0.000       0.000       0.000       0.000       0.000    
        0.000       0.000       0.000       0.000       0.000       0.000       0.000       0.000       0.000       0.000    
        0.000       0.000       0.000       0.000       0.000       0.000       0.000       0.000       0.000       0.000    
        0.000       0.000       0.000       0.000       0.000       0.000    
 110    0.000       0.000       0.000       0.000       0.000       0.000       0.000       0.000       0.000       0.000    
        0.000       0.000       0.000       0.000       0.000       0.000       0.000       0.000      1.0000E-05  1.0000E-05
       1.0000E-05  1.0000E-05  1.0000E-05  1.0000E-05  1.0000E-05  1.0000E-05  1.0000E-05  1.0000E-05  1.0000E-05  1.0000E-05
       1.0000E-05  1.0000E-05  1.0000E-05  1.0000E-05  1.0000E-05  1.0000E-05  1.0000E-05  1.0000E-05  1.0000E-05  1.0000E-05
       1.0000E-05   0.000       0.000       0.000       0.000       0.000       0.000       0.000       0.000       0.000    
        0.000       0.000       0.000       0.000       0.000       0.000       0.000       0.000       0.000       0.000    
        0.000       0.000       0.000       0.000       0.000       0.000       0.000       0.000       0.000       0.000    
        0.000       0.000       0.000       0.000       0.000       0.000    
 111    0.000       0.000       0.000       0.000       0.000       0.000       0.000       0.000       0.000       0.000    
        0.000       0.000       0.000       0.000       0.000      1.0000E-05  1.0000E-05  1.0000E-05  1.0000E-05  1.0000E-05
       1.0000E-05  1.0000E-05  1.0000E-05  1.0000E-05  1.0000E-05  1.0000E-05  1.0000E-05  1.0000E-05  1.0000E-05  1.0000E-05
       1.0000E-05  1.0000E-05  1.0000E-05  1.0000E-05  1.0000E-05  1.0000E-05  1.0000E-05  1.0000E-05  1.0000E-05   0.000    
        0.000       0.000       0.000       0.000       0.000       0.000       0.000       0.000       0.000       0.000    
        0.000       0.000       0.000       0.000       0.000       0.000       0.000       0.000       0.000       0.000    
        0.000       0.000       0.000       0.000       0.000       0.000       0.000       0.000       0.000       0.000    
        0.000       0.000       0.000       0.000       0.000       0.000    
 112    0.000       0.000       0.000       0.000       0.000       0.000       0.000       0.000       0.000       0.000    
        0.000       0.000       0.000       0.000      1.0000E-05  1.0000E-05  1.0000E-05  1.0000E-05  1.0000E-05  1.0000E-05
       1.0000E-05  1.0000E-05  1.0000E-05  1.0000E-05  1.0000E-05  1.0000E-05  1.0000E-05  1.0000E-05  1.0000E-05  1.0000E-05
       1.0000E-05  1.0000E-05  1.0000E-05  1.0000E-05  1.0000E-05  1.0000E-05  1.0000E-05  1.0000E-05   0.000       0.000    
        0.000       0.000       0.000       0.000       0.000       0.000       0.000       0.000       0.000       0.000    
        0.000       0.000       0.000       0.000       0.000       0.000       0.000       0.000       0.000       0.000    
        0.000       0.000       0.000       0.000       0.000       0.000       0.000       0.000       0.000       0.000    
        0.000       0.000       0.000       0.000       0.000       0.000    
 113    0.000       0.000       0.000       0.000       0.000       0.000       0.000       0.000       0.000       0.000    
        0.000       0.000       0.000      1.0000E-05  1.0000E-05  1.0000E-05  1.0000E-05  1.0000E-05  1.0000E-05  1.0000E-05
       1.0000E-05  1.0000E-05  1.0000E-05  1.0000E-05  1.0000E-05  1.0000E-05  1.0000E-05  1.0000E-05  1.0000E-05  1.0000E-05
       1.0000E-05  1.0000E-05  1.0000E-05  1.0000E-05  1.0000E-05  1.0000E-05  1.0000E-05  1.0000E-05   0.000       0.000    
        0.000       0.000       0.000       0.000       0.000       0.000       0.000       0.000       0.000       0.000    
        0.000       0.000       0.000       0.000       0.000       0.000       0.000       0.000       0.000       0.000    
        0.000       0.000       0.000       0.000       0.000       0.000       0.000       0.000       0.000       0.000    
        0.000       0.000       0.000       0.000       0.000       0.000    
 114    0.000       0.000       0.000       0.000       0.000       0.000       0.000       0.000       0.000       0.000    
        0.000       0.000      1.0000E-05  1.0000E-05  1.0000E-05  1.0000E-05  1.0000E-05  1.0000E-05  1.0000E-05  1.0000E-05
       1.0000E-05  1.0000E-05  1.0000E-05  1.0000E-05  1.0000E-05  1.0000E-05  1.0000E-05  1.0000E-05  1.0000E-05  1.0000E-05
       1.0000E-05  1.0000E-05  1.0000E-05  1.0000E-05  1.0000E-05  1.0000E-05  1.0000E-05  1.0000E-05   0.000       0.000    
        0.000       0.000       0.000       0.000       0.000       0.000       0.000       0.000       0.000       0.000    
        0.000       0.000       0.000       0.000       0.000       0.000       0.000       0.000       0.000       0.000    
        0.000       0.000       0.000       0.000       0.000       0.000       0.000       0.000       0.000       0.000    
        0.000       0.000       0.000       0.000       0.000       0.000    
 115    0.000       0.000       0.000       0.000       0.000       0.000       0.000       0.000       0.000       0.000    
        0.000      1.0000E-05  1.0000E-05  1.0000E-05  1.0000E-05  1.0000E-05  1.0000E-05  1.0000E-05  1.0000E-05  1.0000E-05
       1.0000E-05  1.0000E-05  1.0000E-05  1.0000E-05  1.0000E-05  1.0000E-05  1.0000E-05  1.0000E-05  1.0000E-05  1.0000E-05
       1.0000E-05  1.0000E-05  1.0000E-05  1.0000E-05  1.0000E-05  1.0000E-05  1.0000E-05   0.000       0.000       0.000    
        0.000       0.000       0.000       0.000       0.000       0.000       0.000       0.000       0.000       0.000    
        0.000       0.000       0.000       0.000       0.000       0.000       0.000       0.000       0.000       0.000    
        0.000       0.000       0.000       0.000       0.000       0.000       0.000       0.000       0.000       0.000    
        0.000       0.000       0.000       0.000       0.000       0.000    
 116    0.000       0.000       0.000       0.000       0.000       0.000       0.000       0.000       0.000       0.000    
        0.000      1.0000E-05  1.0000E-05  1.0000E-05  1.0000E-05  1.0000E-05  1.0000E-05  1.0000E-05  1.0000E-05  1.0000E-05
       1.0000E-05  1.0000E-05  1.0000E-05  1.0000E-05  1.0000E-05  1.0000E-05  1.0000E-05  1.0000E-05  1.0000E-05  1.0000E-05
       1.0000E-05  1.0000E-05  1.0000E-05  1.0000E-05  1.0000E-05  1.0000E-05   0.000       0.000       0.000       0.000    
        0.000       0.000       0.000       0.000       0.000       0.000       0.000       0.000       0.000       0.000    
        0.000       0.000       0.000       0.000       0.000       0.000       0.000       0.000       0.000       0.000    
        0.000       0.000       0.000       0.000       0.000       0.000       0.000       0.000       0.000       0.000    
        0.000       0.000       0.000       0.000       0.000       0.000    
 117    0.000       0.000       0.000       0.000       0.000       0.000       0.000       0.000      1.0000E-05  1.0000E-05
       1.0000E-05  1.0000E-05  1.0000E-05  1.0000E-05  1.0000E-05  1.0000E-05  1.0000E-05  1.0000E-05  1.0000E-05  1.0000E-05
       1.0000E-05  1.0000E-05  1.0000E-05  1.0000E-05  1.0000E-05  1.0000E-05  1.0000E-05  1.0000E-05  1.0000E-05  1.0000E-05
       1.0000E-05  1.0000E-05  1.0000E-05  1.0000E-05  1.0000E-05  1.0000E-05   0.000       0.000       0.000       0.000    
        0.000       0.000       0.000       0.000       0.000       0.000       0.000       0.000       0.000       0.000    
        0.000       0.000       0.000       0.000       0.000       0.000       0.000       0.000       0.000       0.000    
        0.000       0.000       0.000       0.000       0.000       0.000       0.000       0.000       0.000       0.000    
        0.000       0.000       0.000       0.000       0.000       0.000    
 118    0.000       0.000       0.000       0.000       0.000       0.000       0.000       0.000      1.0000E-05  1.0000E-05
       1.0000E-05  1.0000E-05  1.0000E-05  1.0000E-05  1.0000E-05  1.0000E-05  1.0000E-05  1.0000E-05  1.0000E-05  1.0000E-05
       1.0000E-05  1.0000E-05  1.0000E-05  1.0000E-05  1.0000E-05  1.0000E-05  1.0000E-05  1.0000E-05  1.0000E-05  1.0000E-05
       1.0000E-05  1.0000E-05  1.0000E-05  1.0000E-05  1.0000E-05  1.0000E-05   0.000       0.000       0.000       0.000    
        0.000       0.000       0.000       0.000       0.000       0.000       0.000       0.000       0.000       0.000    
        0.000       0.000       0.000       0.000       0.000       0.000       0.000       0.000       0.000       0.000    
        0.000       0.000       0.000       0.000       0.000       0.000       0.000       0.000       0.000       0.000    
        0.000       0.000       0.000       0.000       0.000       0.000    
 119    0.000       0.000       0.000       0.000       0.000       0.000       0.000      1.0000E-05  1.0000E-05  1.0000E-05
       1.0000E-05  1.0000E-05  1.0000E-05  1.0000E-05  1.0000E-05  1.0000E-05  1.0000E-05  1.0000E-05  1.0000E-05  1.0000E-05
       1.0000E-05  1.0000E-05  1.0000E-05  1.0000E-05  1.0000E-05  1.0000E-05  1.0000E-05  1.0000E-05  1.0000E-05  1.0000E-05
       1.0000E-05  1.0000E-05  1.0000E-05  1.0000E-05  1.0000E-05  1.0000E-05   0.000       0.000       0.000       0.000    
        0.000       0.000       0.000       0.000       0.000       0.000       0.000       0.000       0.000       0.000    
        0.000       0.000       0.000       0.000       0.000       0.000       0.000       0.000       0.000       0.000    
        0.000       0.000       0.000       0.000       0.000       0.000       0.000       0.000       0.000       0.000    
        0.000       0.000       0.000       0.000       0.000       0.000    
 120    0.000       0.000       0.000       0.000       0.000       0.000       0.000      1.0000E-05  1.0000E-05  1.0000E-05
       1.0000E-05  1.0000E-05  1.0000E-05  1.0000E-05  1.0000E-05  1.0000E-05  1.0000E-05  1.0000E-05  1.0000E-05  1.0000E-05
       1.0000E-05  1.0000E-05  1.0000E-05  1.0000E-05  1.0000E-05  1.0000E-05  1.0000E-05  1.0000E-05  1.0000E-05  1.0000E-05
       1.0000E-05  1.0000E-05  1.0000E-05  1.0000E-05  1.0000E-05  1.0000E-05   0.000       0.000       0.000       0.000    
        0.000       0.000       0.000       0.000       0.000       0.000       0.000       0.000       0.000       0.000    
        0.000       0.000       0.000       0.000       0.000       0.000       0.000       0.000       0.000       0.000    
        0.000       0.000       0.000       0.000       0.000       0.000       0.000       0.000       0.000       0.000    
        0.000       0.000       0.000       0.000       0.000       0.000    
 121    0.000       0.000       0.000       0.000       0.000       0.000       0.000      1.0000E-05  1.0000E-05  1.0000E-05
       1.0000E-05  1.0000E-05  1.0000E-05  1.0000E-05  1.0000E-05  1.0000E-05  1.0000E-05  1.0000E-05  1.0000E-05  1.0000E-05
       1.0000E-05  1.0000E-05  1.0000E-05  1.0000E-05  1.0000E-05  1.0000E-05  1.0000E-05  1.0000E-05  1.0000E-05  1.0000E-05
       1.0000E-05  1.0000E-05  1.0000E-05  1.0000E-05   0.000       0.000       0.000       0.000       0.000       0.000    
        0.000       0.000       0.000       0.000       0.000       0.000       0.000       0.000       0.000       0.000    
        0.000       0.000       0.000       0.000       0.000       0.000       0.000       0.000       0.000       0.000    
        0.000       0.000       0.000       0.000       0.000       0.000       0.000       0.000       0.000       0.000    
        0.000       0.000       0.000       0.000       0.000       0.000    
 122    0.000       0.000       0.000       0.000       0.000      1.0000E-05  1.0000E-05  1.0000E-05  1.0000E-05  1.0000E-05
       1.0000E-05  1.0000E-05  1.0000E-05  1.0000E-05  1.0000E-05  1.0000E-05  1.0000E-05  1.0000E-05  1.0000E-05  1.0000E-05
       1.0000E-05  1.0000E-05  1.0000E-05  1.0000E-05  1.0000E-05  1.0000E-05  1.0000E-05  1.0000E-05  1.0000E-05  1.0000E-05
       1.0000E-05  1.0000E-05  1.0000E-05  1.0000E-05   0.000       0.000       0.000       0.000       0.000       0.000    
        0.000       0.000       0.000       0.000       0.000       0.000       0.000       0.000       0.000       0.000    
        0.000       0.000       0.000       0.000       0.000       0.000       0.000       0.000       0.000       0.000    
        0.000       0.000       0.000       0.000       0.000       0.000       0.000       0.000       0.000       0.000    
        0.000       0.000       0.000       0.000       0.000       0.000    
 123    0.000       0.000       0.000       0.000      1.0000E-05  1.0000E-05  1.0000E-05  1.0000E-05  1.0000E-05  1.0000E-05
       1.0000E-05  1.0000E-05  1.0000E-05  1.0000E-05  1.0000E-05  1.0000E-05  1.0000E-05  1.0000E-05  1.0000E-05  1.0000E-05
       1.0000E-05  1.0000E-05  1.0000E-05  1.0000E-05  1.0000E-05  1.0000E-05  1.0000E-05  1.0000E-05  1.0000E-05  1.0000E-05
       1.0000E-05  1.0000E-05  1.0000E-05  1.0000E-05   0.000       0.000       0.000       0.000       0.000       0.000    
        0.000       0.000       0.000       0.000       0.000       0.000       0.000       0.000       0.000       0.000    
        0.000       0.000       0.000       0.000       0.000       0.000       0.000       0.000       0.000       0.000    
        0.000       0.000       0.000       0.000       0.000       0.000       0.000       0.000       0.000       0.000    
        0.000       0.000       0.000       0.000       0.000       0.000    
 124    0.000       0.000       0.000      1.0000E-05  1.0000E-05  1.0000E-05  1.0000E-05  1.0000E-05  1.0000E-05  1.0000E-05
       1.0000E-05  1.0000E-05  1.0000E-05  1.0000E-05  1.0000E-05  1.0000E-05  1.0000E-05  1.0000E-05  1.0000E-05  1.0000E-05
       1.0000E-05  1.0000E-05  1.0000E-05  1.0000E-05  1.0000E-05  1.0000E-05  1.0000E-05  1.0000E-05  1.0000E-05  1.0000E-05
       1.0000E-05  1.0000E-05   0.000       0.000       0.000       0.000       0.000       0.000       0.000       0.000    
        0.000       0.000       0.000       0.000       0.000       0.000       0.000       0.000       0.000       0.000    
        0.000       0.000       0.000       0.000       0.000       0.000       0.000       0.000       0.000       0.000    
        0.000       0.000       0.000       0.000       0.000       0.000       0.000       0.000       0.000       0.000    
        0.000       0.000       0.000       0.000       0.000       0.000    
 125    0.000      1.0000E-05  1.0000E-05  1.0000E-05  1.0000E-05  1.0000E-05  1.0000E-05  1.0000E-05  1.0000E-05  1.0000E-05
       1.0000E-05  1.0000E-05  1.0000E-05  1.0000E-05  1.0000E-05  1.0000E-05  1.0000E-05  1.0000E-05  1.0000E-05  1.0000E-05
       1.0000E-05  1.0000E-05  1.0000E-05  1.0000E-05  1.0000E-05  1.0000E-05  1.0000E-05  1.0000E-05  1.0000E-05   0.000    
        0.000       0.000       0.000       0.000       0.000       0.000       0.000       0.000       0.000       0.000    
        0.000       0.000       0.000       0.000       0.000       0.000       0.000       0.000       0.000       0.000    
        0.000       0.000       0.000       0.000       0.000       0.000       0.000       0.000       0.000       0.000    
        0.000       0.000       0.000       0.000       0.000       0.000       0.000       0.000       0.000       0.000    
        0.000       0.000       0.000       0.000       0.000       0.000    
 126    0.000      1.0000E-05  1.0000E-05  1.0000E-05  1.0000E-05  1.0000E-05  1.0000E-05  1.0000E-05  1.0000E-05  1.0000E-05
       1.0000E-05  1.0000E-05  1.0000E-05  1.0000E-05  1.0000E-05  1.0000E-05  1.0000E-05  1.0000E-05  1.0000E-05  1.0000E-05
       1.0000E-05  1.0000E-05  1.0000E-05  1.0000E-05  1.0000E-05   0.000       0.000       0.000       0.000       0.000    
        0.000       0.000       0.000       0.000       0.000       0.000       0.000       0.000       0.000       0.000    
        0.000       0.000       0.000       0.000       0.000       0.000       0.000       0.000       0.000       0.000    
        0.000       0.000       0.000       0.000       0.000       0.000       0.000       0.000       0.000       0.000    
        0.000       0.000       0.000       0.000       0.000       0.000       0.000       0.000       0.000       0.000    
        0.000       0.000       0.000       0.000       0.000       0.000    
 127    0.000      1.0000E-05  1.0000E-05  1.0000E-05  1.0000E-05  1.0000E-05  1.0000E-05  1.0000E-05  1.0000E-05  1.0000E-05
       1.0000E-05  1.0000E-05  1.0000E-05  1.0000E-05  1.0000E-05  1.0000E-05  1.0000E-05  1.0000E-05  1.0000E-05  1.0000E-05
       1.0000E-05  1.0000E-05  1.0000E-05  1.0000E-05   0.000       0.000       0.000       0.000       0.000       0.000    
        0.000       0.000       0.000       0.000       0.000       0.000       0.000       0.000       0.000       0.000    
        0.000       0.000       0.000       0.000       0.000       0.000       0.000       0.000       0.000       0.000    
        0.000       0.000       0.000       0.000       0.000       0.000       0.000       0.000       0.000       0.000    
        0.000       0.000       0.000       0.000       0.000       0.000       0.000       0.000       0.000       0.000    
        0.000       0.000       0.000       0.000       0.000       0.000    
 128   1.0000E-05  1.0000E-05  1.0000E-05  1.0000E-05  1.0000E-05  1.0000E-05  1.0000E-05  1.0000E-05  1.0000E-05  1.0000E-05
       1.0000E-05  1.0000E-05  1.0000E-05  1.0000E-05  1.0000E-05  1.0000E-05  1.0000E-05  1.0000E-05  1.0000E-05   0.000    
        0.000       0.000       0.000       0.000       0.000       0.000       0.000       0.000       0.000       0.000    
        0.000       0.000       0.000       0.000       0.000       0.000       0.000       0.000       0.000       0.000    
        0.000       0.000       0.000       0.000       0.000       0.000       0.000       0.000       0.000       0.000    
        0.000       0.000       0.000       0.000       0.000       0.000       0.000       0.000       0.000       0.000    
        0.000       0.000       0.000       0.000       0.000       0.000       0.000       0.000       0.000       0.000    
        0.000       0.000       0.000       0.000       0.000       0.000    
 129   1.0000E-05  1.0000E-05  1.0000E-05  1.0000E-05  1.0000E-05  1.0000E-05  1.0000E-05  1.0000E-05  1.0000E-05  1.0000E-05
       1.0000E-05  1.0000E-05  1.0000E-05  1.0000E-05  1.0000E-05  1.0000E-05   0.000       0.000       0.000       0.000    
        0.000       0.000       0.000       0.000       0.000       0.000       0.000       0.000       0.000       0.000    
        0.000       0.000       0.000       0.000       0.000       0.000       0.000       0.000       0.000       0.000    
        0.000       0.000       0.000       0.000       0.000       0.000       0.000       0.000       0.000       0.000    
        0.000       0.000       0.000       0.000       0.000       0.000       0.000       0.000       0.000       0.000    
        0.000       0.000       0.000       0.000       0.000       0.000       0.000       0.000       0.000       0.000    
        0.000       0.000       0.000       0.000       0.000       0.000    
 130   1.0000E-05  1.0000E-05  1.0000E-05  1.0000E-05  1.0000E-05  1.0000E-05  1.0000E-05  1.0000E-05  1.0000E-05  1.0000E-05
       1.0000E-05   0.000       0.000       0.000       0.000       0.000       0.000       0.000       0.000       0.000    
        0.000       0.000       0.000       0.000       0.000       0.000       0.000       0.000       0.000       0.000    
        0.000       0.000       0.000       0.000       0.000       0.000       0.000       0.000       0.000       0.000    
        0.000       0.000       0.000       0.000       0.000       0.000       0.000       0.000       0.000       0.000    
        0.000       0.000       0.000       0.000       0.000       0.000       0.000       0.000       0.000       0.000    
        0.000       0.000       0.000       0.000       0.000       0.000       0.000       0.000       0.000       0.000    
        0.000       0.000       0.000       0.000       0.000       0.000    
 131   1.0000E-05  1.0000E-05  1.0000E-05  1.0000E-05   0.000       0.000       0.000       0.000       0.000       0.000    
        0.000       0.000       0.000       0.000       0.000       0.000       0.000       0.000       0.000       0.000    
        0.000       0.000       0.000       0.000       0.000       0.000       0.000       0.000       0.000       0.000    
        0.000       0.000       0.000       0.000       0.000       0.000       0.000       0.000       0.000       0.000    
        0.000       0.000       0.000       0.000       0.000       0.000       0.000       0.000       0.000       0.000    
        0.000       0.000       0.000       0.000       0.000       0.000       0.000       0.000       0.000       0.000    
        0.000       0.000       0.000       0.000       0.000       0.000       0.000       0.000       0.000       0.000    
        0.000       0.000       0.000       0.000       0.000       0.000    
 
 SOLVING FOR HEAD 
                                                   Max.-Head-Change                        Max.-Flux-Residual
  Residual-Control   Outer-Iter.   Inner-Iter.     Column Row Layer    Max.-Head-Change    Column Row Layer    Max.-Flux-Residual            L2-New               L2-Old           Solver-Max-Delh
          0                 1           2            62   29     1       0.2297596687E+05      34  103    1       0.1027740666E+07      0.1406685457E+07      0.0000000000E+00      0.2297596687E+05
          1                 1           0            62   29     1       0.1608317653E+05      62   29    1      -0.2874216314E+10      0.4058229473E+10      0.1406685457E+07      0.2297596687E+05
          2                 1           0            62   29     1       0.1125822338E+05      62   29    1      -0.2011028489E+10      0.2841359727E+10      0.4058229473E+10      0.2297596687E+05
          3                 1           0            62   29     1       0.7880756233E+04      62   29    1      -0.1406797023E+10      0.1989570346E+10      0.2841359727E+10      0.2297596687E+05
          4                 1           0            62   29     1       0.5516529269E+04      62   29    1      -0.9838350031E+09      0.1393307245E+10      0.1989570346E+10      0.2297596687E+05
          5                 1           0            62   29     1       0.3861570423E+04      62   29    1      -0.6877615945E+09      0.9759655537E+09      0.1393307245E+10      0.2297596687E+05
          6                 1           0            62   29     1       0.2703099250E+04      62   29    1      -0.4805102120E+09      0.6838545147E+09      0.9759655537E+09      0.2297596687E+05
          7                 1           0            62   29     1       0.1892169443E+04      62   29    1      -0.3354342468E+09      0.4793945858E+09      0.6838545147E+09      0.2297596687E+05
          8                 1           0            62   29     1       0.1324518587E+04      34  103    1      -0.2363313263E+09      0.3362321851E+09      0.4793945858E+09      0.2297596687E+05
          9                 1           0            62   29     1       0.9271629953E+03      34  103    1      -0.1671334853E+09      0.2360977878E+09      0.3362321851E+09      0.2297596687E+05
                                                   Max.-Head-Change                        Max.-Flux-Residual
  Residual-Control   Outer-Iter.   Inner-Iter.     Column Row Layer    Max.-Head-Change    Column Row Layer    Max.-Flux-Residual            L2-New               L2-Old           Solver-Max-Delh
         10                 1           0            62   29     1       0.6490140857E+03      34  103    1      -0.1186949974E+09      0.1661076171E+09      0.2360977878E+09      0.2297596687E+05
         11                 1           0            62   29     1       0.4543098522E+03      34  103    1      -0.8478805644E+08      0.1171678160E+09      0.1661076171E+09      0.2297596687E+05
         12                 1           0            62   29     1       0.3180168911E+03      34  103    1      -0.6105319819E+08      0.8262047820E+08      0.1171678160E+09      0.2297596687E+05
         13                 1           0            62   29     1       0.2226118200E+03      34  103    1      -0.4443879769E+08      0.5845701219E+08      0.8262047820E+08      0.2297596687E+05
         14                 1           0            62   29     1       0.1558282714E+03      34  103    1      -0.3280871755E+08      0.4163653102E+08      0.5845701219E+08      0.2297596687E+05
         15                 1           0            62   29     1       0.1090797881E+03      34  103    1      -0.2466867532E+08      0.2998418800E+08      0.4163653102E+08      0.2297596687E+05
         16                 1           0            62   29     1       0.7635585036E+02      34  103    1      -0.1897112052E+08      0.2197297862E+08      0.2998418800E+08      0.2297596687E+05
         17                 1           0            62   29     1       0.5344909434E+02      34  103    1      -0.1498283241E+08      0.1652044448E+08      0.2197297862E+08      0.2297596687E+05
         18                 1           0            62   29     1       0.3741436540E+02      34  103    1      -0.1219103087E+08      0.1281624235E+08      0.1652044448E+08      0.2297596687E+05
         19                 1           0            62   29     1       0.2619005534E+02      34  103    1      -0.1023676987E+08      0.1042536194E+08      0.1281624235E+08      0.2297596687E+05
                                                   Max.-Head-Change                        Max.-Flux-Residual
  Residual-Control   Outer-Iter.   Inner-Iter.     Column Row Layer    Max.-Head-Change    Column Row Layer    Max.-Flux-Residual            L2-New               L2-Old           Solver-Max-Delh
         20                 1           0            62   29     1       0.1833303842E+02      34  103    1      -0.8727018928E+07      0.8787109115E+07      0.1042536194E+08      0.2297596687E+05
         21                 1           0            62   29     1       0.1283312668E+02      34  103    1      -0.5798198138E+07      0.5876744917E+07      0.8787109115E+07      0.2297596687E+05
         22                 1           0            62   29     1       0.8983188521E+01      34  103    1      -0.3748272971E+07      0.3869236457E+07      0.5876744917E+07      0.2297596687E+05
         23                 1           0            62   29     1       0.6288231858E+01      34  103    1      -0.2313403838E+07      0.2504716511E+07      0.3869236457E+07      0.2297596687E+05
         24                 1           0            62   29     1       0.4401762226E+01      34  103    1      -0.1309032188E+07      0.1623440719E+07      0.2504716511E+07      0.2297596687E+05
          0                 2           2            62   29     1       0.2296584164E+05      34  103    1      -0.6059900403E+06      0.1135506019E+07      0.1623440719E+07      0.2296584164E+05
          1                 2           0            62   29     1       0.1607608887E+05      62   29    1      -0.2873499561E+10      0.2930654996E+10      0.1135506019E+07      0.2296584164E+05
          2                 2           0            62   29     1       0.1125326202E+05      62   29    1      -0.2010692133E+10      0.2050825993E+10      0.2930654996E+10      0.2296584164E+05
          3                 2           0            62   29     1       0.7877283280E+04      62   29    1      -0.1406726944E+10      0.1434971845E+10      0.2050825993E+10      0.2296584164E+05
          4                 2           0            62   29     1       0.5514098202E+04      62   29    1      -0.9839513183E+09      0.1003856548E+10      0.1434971845E+10      0.2296584164E+05
                                                   Max.-Head-Change                        Max.-Flux-Residual
  Residual-Control   Outer-Iter.   Inner-Iter.     Column Row Layer    Max.-Head-Change    Column Row Layer    Max.-Flux-Residual            L2-New               L2-Old           Solver-Max-Delh
          5                 2           0            62   29     1       0.3859868676E+04      62   29    1      -0.6880083857E+09      0.7021308409E+09      0.1003856548E+10      0.2296584164E+05
          6                 2           0            62   29     1       0.2701908027E+04      62   29    1      -0.4808483364E+09      0.4909570901E+09      0.7021308409E+09      0.2296584164E+05
          7                 2           0            62   29     1       0.1891335587E+04      62   29    1      -0.3358363043E+09      0.3431535792E+09      0.4909570901E+09      0.2296584164E+05
          8                 2           0            62   29     1       0.1323934888E+04      62   29    1      -0.2343278836E+09      0.2396232658E+09      0.3431535792E+09      0.2296584164E+05
          9                 2           0            62   29     1       0.9267544059E+03      62   29    1      -0.1632719903E+09      0.1672484683E+09      0.2396232658E+09      0.2296584164E+05
         10                 2           0            62   29     1       0.6487280731E+03      62   29    1      -0.1135328658E+09      0.1167132883E+09      0.1672484683E+09      0.2296584164E+05
         11                 2           0            62   29     1       0.4541096434E+03      62   29    1      -0.7871547932E+08      0.8140155913E+08      0.1167132883E+09      0.2296584164E+05
         12                 2           0            62   29     1       0.3178767450E+03      62   29    1      -0.5434332365E+08      0.5621428288E+08      0.8140155913E+08      0.2296584164E+05
         13                 2           0            62   29     1       0.2225137177E+03      62   29    1      -0.3728281756E+08      0.3853753586E+08      0.5621428288E+08      0.2296584164E+05
         14                 2           0            62   29     1       0.1557595997E+03      62   29    1      -0.2534046350E+08      0.2619838141E+08      0.3853753586E+08      0.2296584164E+05
                                                   Max.-Head-Change                        Max.-Flux-Residual
  Residual-Control   Outer-Iter.   Inner-Iter.     Column Row Layer    Max.-Head-Change    Column Row Layer    Max.-Flux-Residual            L2-New               L2-Old           Solver-Max-Delh
         15                 2           0            62   29     1       0.1090317180E+03      62   29    1      -0.1698081580E+08      0.1761042336E+08      0.2619838141E+08      0.2296584164E+05
         16                 2           0            62   29     1       0.7632220127E+02      62   29    1      -0.1112906250E+08      0.1165446022E+08      0.1761042336E+08      0.2296584164E+05
         17                 2           0            62   29     1       0.5342553998E+02      62   29    1      -0.7032835271E+07      0.7531088340E+07      0.1165446022E+08      0.2296584164E+05
         18                 2           0            62   29     1       0.3739787735E+02      62   29    1      -0.4165476256E+07      0.4565550378E+07      0.7531088340E+07      0.2296584164E+05
         19                 2           0            62   29     1       0.2617851370E+02      62   29    1      -0.2158326377E+07      0.2558366570E+07      0.4565550378E+07      0.2296584164E+05
         20                 2           0            62   29     1       0.1832495928E+02      62   29    1      -0.7533215555E+06      0.1410880123E+07      0.2558366570E+07      0.2296584164E+05
          0                 3           2            62   30     1       0.8809929206E+04      34  103    1      -0.6055306614E+06      0.1125749011E+07      0.1410880123E+07      0.8809929206E+04
          1                 3           0            62   30     1       0.6166950339E+04      62   30    1      -0.4254683273E+09      0.4409357868E+09      0.1125749011E+07      0.8809929206E+04
          2                 3           0            62   30     1       0.4316865164E+04      62   30    1      -0.2979364699E+09      0.3093014506E+09      0.4409357868E+09      0.8809929206E+04
          3                 3           0            62   30     1       0.3021805563E+04      62   30    1      -0.2086641713E+09      0.2173279883E+09      0.3093014506E+09      0.8809929206E+04
                                                   Max.-Head-Change                        Max.-Flux-Residual
  Residual-Control   Outer-Iter.   Inner-Iter.     Column Row Layer    Max.-Head-Change    Column Row Layer    Max.-Flux-Residual            L2-New               L2-Old           Solver-Max-Delh
          4                 3           0            62   30     1       0.2115263858E+04      62   30    1      -0.1461735632E+09      0.1528236952E+09      0.2173279883E+09      0.8809929206E+04
          5                 3           0            62   30     1       0.1480684676E+04      62   30    1      -0.1024301384E+09      0.1080206244E+09      0.1528236952E+09      0.8809929206E+04
          6                 3           0            62   30     1       0.1036479255E+04      62   30    1      -0.7180974151E+08      0.7686691011E+08      0.1080206244E+09      0.8809929206E+04
          7                 3           0            62   30     1       0.7255354663E+03      62   30    1      -0.5037546406E+08      0.5513857615E+08      0.7686691011E+08      0.8809929206E+04
          8                 3           0            62   30     1       0.5078748178E+03      62   30    1      -0.3537147010E+08      0.3947316256E+08      0.5513857615E+08      0.8809929206E+04
          9                 3           0            62   30     1       0.3555123664E+03      62   30    1      -0.2486868456E+08      0.2901801222E+08      0.3947316256E+08      0.8809929206E+04
         10                 3           0            62   30     1       0.2488586522E+03      62   30    1      -0.1751674963E+08      0.2227128212E+08      0.2901801222E+08      0.8809929206E+04
         11                 3           0            62   30     1       0.1742010536E+03      62   30    1      -0.1237039527E+08      0.1786829700E+08      0.2227128212E+08      0.8809929206E+04
         12                 3           0            62   30     1       0.1219407354E+03      62   30    1      -0.8767947283E+07      0.1232327208E+08      0.1786829700E+08      0.8809929206E+04
         13                 3           0            62   30     1       0.8535851335E+02      62   30    1      -0.6246233732E+07      0.8264738465E+07      0.1232327208E+08      0.8809929206E+04
                                                   Max.-Head-Change                        Max.-Flux-Residual
  Residual-Control   Outer-Iter.   Inner-Iter.     Column Row Layer    Max.-Head-Change    Column Row Layer    Max.-Flux-Residual            L2-New               L2-Old           Solver-Max-Delh
         14                 3           0            62   30     1       0.5975095833E+02      62   30    1      -0.4481037123E+07      0.5491184554E+07      0.8264738465E+07      0.8809929206E+04
         15                 3           0            62   30     1       0.4182567012E+02      62   30    1      -0.3245402094E+07      0.3751687255E+07      0.5491184554E+07      0.8809929206E+04
         16                 3           0            62   30     1       0.2927796858E+02      62   30    1      -0.2380459214E+07      0.2712869089E+07      0.3751687255E+07      0.8809929206E+04
         17                 3           0            62   30     1       0.2049457766E+02      62   30    1      -0.1774999208E+07      0.2136976470E+07      0.2712869089E+07      0.8809929206E+04
         18                 3           0            62   30     1       0.1434620412E+02      62   30    1      -0.1352806361E+07      0.1772756060E+07      0.2136976470E+07      0.8809929206E+04
         19                 3           0            62   30     1       0.1004234271E+02      62   30    1      -0.7356621214E+06      0.1347845358E+07      0.1772756060E+07      0.8809929206E+04
          0                 4           2            58   12     1       0.2169792407E+04      34  103    1      -0.6048748963E+06      0.1164223748E+07      0.1347845358E+07      0.2169792407E+04
          1                 4           0            58   12     1       0.1518854659E+04      58   12    1      -0.6870198868E+08      0.1140346951E+09      0.1164223748E+07      0.2169792407E+04
          2                 4           0            58   12     1       0.1063198243E+04      58   12    1      -0.4827875261E+08      0.8179557811E+08      0.1140346951E+09      0.2169792407E+04
          3                 4           0            58   12     1       0.7442387575E+03      58   12    1      -0.3398248760E+08      0.5979999602E+08      0.8179557811E+08      0.2169792407E+04
                                                   Max.-Head-Change                        Max.-Flux-Residual
  Residual-Control   Outer-Iter.   Inner-Iter.     Column Row Layer    Max.-Head-Change    Column Row Layer    Max.-Flux-Residual            L2-New               L2-Old           Solver-Max-Delh
          4                 4           0            58   12     1       0.5209671214E+03      58   12    1      -0.2397510226E+08      0.4384379432E+08      0.5979999602E+08      0.2169792407E+04
          5                 4           0            58   12     1       0.3646769788E+03      58   12    1      -0.1696993265E+08      0.3370559340E+08      0.4384379432E+08      0.2169792407E+04
          6                 4           0            58   12     1       0.2552738808E+03      14  125    1      -0.1237986955E+08      0.2696487746E+08      0.3370559340E+08      0.2169792407E+04
          7                 4           0            58   12     1       0.1786917135E+03      14  125    1      -0.1205279618E+08      0.2202407081E+08      0.2696487746E+08      0.2169792407E+04
          8                 4           0            58   12     1       0.1250841973E+03      14  125    1      -0.1182384483E+08      0.1718440914E+08      0.2202407081E+08      0.2169792407E+04
          9                 4           0            58   12     1       0.8755893664E+02      14  125    1      -0.1166385943E+08      0.1461048066E+08      0.1718440914E+08      0.2169792407E+04
         10                 4           0            58   12     1       0.6129125460E+02      14  125    1      -0.1155259512E+08      0.1341037229E+08      0.1461048066E+08      0.2169792407E+04
         11                 4           0            58   12     1       0.4290387749E+02      14  125    1      -0.1147471011E+08      0.1268300711E+08      0.1341037229E+08      0.2169792407E+04
         12                 4           0            58   12     1       0.3003271373E+02      14  125    1      -0.7856672789E+07      0.8840176126E+07      0.1268300711E+08      0.2169792407E+04
         13                 4           0            58   12     1       0.2102289926E+02      14  125    1      -0.5025245151E+07      0.5762944570E+07      0.8840176126E+07      0.2169792407E+04
                                                   Max.-Head-Change                        Max.-Flux-Residual
  Residual-Control   Outer-Iter.   Inner-Iter.     Column Row Layer    Max.-Head-Change    Column Row Layer    Max.-Flux-Residual            L2-New               L2-Old           Solver-Max-Delh
         14                 4           0            58   12     1       0.1471602923E+02      14  125    1      -0.3043436360E+07      0.3499230232E+07      0.5762944570E+07      0.2169792407E+04
         15                 4           0            58   12     1       0.1030122028E+02      14  125    1      -0.1656263586E+07      0.2159273296E+07      0.3499230232E+07      0.2169792407E+04
         16                 4           0            58   12     1       0.7210854076E+01      14  125    1      -0.6852884052E+06      0.1431207734E+07      0.2159273296E+07      0.2169792407E+04
          0                 5           2            58   12     1       0.2168228055E+04      34  103    1      -0.6029650953E+06      0.1198467298E+07      0.1431207734E+07      0.2168228055E+04
          1                 5           0            58   12     1       0.1517759613E+04      58   12    1      -0.6887914823E+08      0.1117563398E+09      0.1198467298E+07      0.2168228055E+04
          2                 5           0            58   12     1       0.1062431711E+04      58   12    1      -0.4847063667E+08      0.7964276062E+08      0.1117563398E+09      0.2168228055E+04
          3                 5           0            58   12     1       0.7437021848E+03      58   12    1      -0.3418467882E+08      0.5762307135E+08      0.7964276062E+08      0.2168228055E+04
          4                 5           0            58   12     1       0.5205915205E+03      58   12    1      -0.2418450850E+08      0.4139587169E+08      0.5762307135E+08      0.2168228055E+04
          5                 5           0            58   12     1       0.3644140581E+03      58   12    1      -0.1718438939E+08      0.3088682338E+08      0.4139587169E+08      0.2168228055E+04
          6                 5           0            58   12     1       0.2550898364E+03      58   12    1      -0.1228430610E+08      0.2379103330E+08      0.3088682338E+08      0.2168228055E+04
                                                   Max.-Head-Change                        Max.-Flux-Residual
  Residual-Control   Outer-Iter.   Inner-Iter.     Column Row Layer    Max.-Head-Change    Column Row Layer    Max.-Flux-Residual            L2-New               L2-Old           Solver-Max-Delh
          7                 5           0            58   12     1       0.1785628824E+03      30  102    1      -0.1015529300E+08      0.1822411558E+08      0.2379103330E+08      0.2168228055E+04
          8                 5           0            58   12     1       0.1249940156E+03      58   12    1      -0.6453230732E+07      0.1235536880E+08      0.1822411558E+08      0.2168228055E+04
          9                 5           0            58   12     1       0.8749580940E+02      58   12    1      -0.4772511077E+07      0.8443475414E+07      0.1235536880E+08      0.2168228055E+04
         10                 5           0            58   12     1       0.6124706554E+02      58   12    1      -0.3596007338E+07      0.6339359230E+07      0.8443475414E+07      0.2168228055E+04
         11                 5           0            58   12     1       0.4287294515E+02      58   12    1      -0.2772454735E+07      0.5051929038E+07      0.6339359230E+07      0.2168228055E+04
         12                 5           0            58   12     1       0.3001106109E+02      58   12    1      -0.2195967923E+07      0.3841616465E+07      0.5051929038E+07      0.2168228055E+04
         13                 5           0            58   12     1       0.2100774241E+02      58   12    1      -0.1792427161E+07      0.2878722841E+07      0.3841616465E+07      0.2168228055E+04
         14                 5           0            58   12     1       0.1470541943E+02      58   12    1      -0.1245931554E+07      0.2003817272E+07      0.2878722841E+07      0.2168228055E+04
         15                 5           0            58   12     1       0.1029379343E+02      58   12    1      -0.6132214816E+06      0.1362526571E+07      0.2003817272E+07      0.2168228055E+04
          0                 6           2            58   13     1       0.2113525599E+04      34  103    1      -0.6002453935E+06      0.1204618626E+07      0.1362526571E+07      0.2113525599E+04
                                                   Max.-Head-Change                        Max.-Flux-Residual
  Residual-Control   Outer-Iter.   Inner-Iter.     Column Row Layer    Max.-Head-Change    Column Row Layer    Max.-Flux-Residual            L2-New               L2-Old           Solver-Max-Delh
          1                 6           0            58   13     1       0.1479467894E+04      58   13    1      -0.6555494077E+08      0.8723465677E+08      0.1204618626E+07      0.2113525599E+04
          2                 6           0            58   13     1       0.1035627508E+04      58   13    1      -0.4612208483E+08      0.6280335247E+08      0.8723465677E+08      0.2113525599E+04
          3                 6           0            58   13     1       0.7249392435E+03      58   13    1      -0.3251908590E+08      0.4629479875E+08      0.6280335247E+08      0.2113525599E+04
          4                 6           0            58   13     1       0.5074574618E+03      58   13    1      -0.2299698682E+08      0.3363884641E+08      0.4629479875E+08      0.2113525599E+04
          5                 6           0            58   13     1       0.3552202172E+03      58   13    1      -0.1633151757E+08      0.2577627258E+08      0.3363884641E+08      0.2113525599E+04
          6                 6           0            58   13     1       0.2486541478E+03      58   13    1      -0.1166569597E+08      0.2069728987E+08      0.2577627258E+08      0.2113525599E+04
          7                 6           0            58   13     1       0.1740579005E+03      30  102    1      -0.1016873178E+08      0.1623646144E+08      0.2069728987E+08      0.2113525599E+04
          8                 6           0            58   13     1       0.1218405283E+03      30  102    1      -0.6523212102E+07      0.1124190315E+08      0.1623646144E+08      0.2113525599E+04
          9                 6           0            58   13     1       0.8528836834E+02      58   13    1      -0.4513010595E+07      0.7527657786E+07      0.1124190315E+08      0.2113525599E+04
         10                 6           0            58   13     1       0.5970185682E+02      58   13    1      -0.3392749869E+07      0.5551101987E+07      0.7527657786E+07      0.2113525599E+04
                                                   Max.-Head-Change                        Max.-Flux-Residual
  Residual-Control   Outer-Iter.   Inner-Iter.     Column Row Layer    Max.-Head-Change    Column Row Layer    Max.-Flux-Residual            L2-New               L2-Old           Solver-Max-Delh
         11                 6           0            58   13     1       0.4179129906E+02      58   13    1      -0.2608567374E+07      0.4739078585E+07      0.5551101987E+07      0.2113525599E+04
         12                 6           0            58   13     1       0.2925390885E+02      58   13    1      -0.2059639637E+07      0.3782456320E+07      0.4739078585E+07      0.2113525599E+04
         13                 6           0            58   13     1       0.2047773584E+02      58   13    1      -0.1675391189E+07      0.2958360670E+07      0.3782456320E+07      0.2113525599E+04
         14                 6           0            58   13     1       0.1433441485E+02      58   13    1      -0.1406417710E+07      0.2335907369E+07      0.2958360670E+07      0.2113525599E+04
         15                 6           0            58   13     1       0.1003409022E+02      58   13    1      -0.1172979702E+07      0.1929904470E+07      0.2335907369E+07      0.2113525599E+04
         16                 6           0            58   13     1       0.7023863036E+01      58   13    1      -0.7410619572E+06      0.1542210992E+07      0.1929904470E+07      0.2113525599E+04
         17                 6           0            58   13     1       0.4916704041E+01      34  103    1      -0.5983501696E+06      0.1337825160E+07      0.1542210992E+07      0.2113525599E+04
          0                 7           2            38   30     1       0.4358671442E+03      34  103    1      -0.5989187368E+06      0.1245292519E+07      0.1337825160E+07      0.4358671442E+03
          1                 7           0            38   30     1       0.3051069958E+03      33   73    1      -0.1986066412E+08      0.5130519846E+08      0.1245292519E+07      0.4358671442E+03
          2                 7           0            38   30     1       0.2135748934E+03      36   80    1      -0.1569838149E+08      0.3828191207E+08      0.5130519846E+08      0.4358671442E+03
                                                   Max.-Head-Change                        Max.-Flux-Residual
  Residual-Control   Outer-Iter.   Inner-Iter.     Column Row Layer    Max.-Head-Change    Column Row Layer    Max.-Flux-Residual            L2-New               L2-Old           Solver-Max-Delh
          3                 7           0            38   30     1       0.1495024228E+03      36   80    1      -0.1563031297E+08      0.2999339294E+08      0.3828191207E+08      0.4358671442E+03
          4                 7           0            38   30     1       0.1046516942E+03      30  104    1      -0.1154283414E+08      0.2235632016E+08      0.2999339294E+08      0.4358671442E+03
          5                 7           0            38   30     1       0.7325618470E+02      30  104    1      -0.1145078609E+08      0.1834876188E+08      0.2235632016E+08      0.4358671442E+03
          6                 7           0            38   30     1       0.5127932841E+02      30  104    1      -0.1063178114E+08      0.1603342277E+08      0.1834876188E+08      0.4358671442E+03
          7                 7           0            38   30     1       0.3589552928E+02      30  102    1      -0.1017531669E+08      0.1297238502E+08      0.1603342277E+08      0.4358671442E+03
          8                 7           0            38   30     1       0.2512687007E+02      30  102    1      -0.6853152263E+07      0.8624347216E+07      0.1297238502E+08      0.4358671442E+03
          9                 7           0            38   30     1       0.1758880875E+02      30  102    1      -0.3348490055E+07      0.4740256228E+07      0.8624347216E+07      0.4358671442E+03
         10                 7           0            38   30     1       0.1231216591E+02      38   30    1      -0.1471017459E+07      0.2413800031E+07      0.4740256228E+07      0.4358671442E+03
         11                 7           0            38   30     1       0.8618515993E+01      38   30    1      -0.9416251726E+06      0.1681573758E+07      0.2413800031E+07      0.4358671442E+03
         12                 7           0            38   30     1       0.6032961092E+01      34  103    1      -0.5876671448E+06      0.1415328407E+07      0.1681573758E+07      0.4358671442E+03
                                                   Max.-Head-Change                        Max.-Flux-Residual
  Residual-Control   Outer-Iter.   Inner-Iter.     Column Row Layer    Max.-Head-Change    Column Row Layer    Max.-Flux-Residual            L2-New               L2-Old           Solver-Max-Delh
          0                 8           2            34   65     1       0.2488076553E+03      34  103    1      -0.5910426224E+06      0.1291771625E+07      0.1415328407E+07      0.2488076553E+03
          1                 8           0            34   65     1       0.1741653557E+03      33   73    1      -0.1986079976E+08      0.4998168539E+08      0.1291771625E+07      0.2488076553E+03
          2                 8           0            34   65     1       0.1219157469E+03      36   80    1      -0.1570289164E+08      0.3747109152E+08      0.4998168539E+08      0.2488076553E+03
          3                 8           0            34   65     1       0.8534102140E+02      36   80    1      -0.1563442096E+08      0.2947561689E+08      0.3747109152E+08      0.2488076553E+03
          4                 8           0            34   65     1       0.5973871397E+02      30  104    1      -0.1155521519E+08      0.2225204781E+08      0.2947561689E+08      0.2488076553E+03
          5                 8           0            34   65     1       0.4181709906E+02      30  104    1      -0.1146313368E+08      0.1821998551E+08      0.2225204781E+08      0.2488076553E+03
          6                 8           0            34   65     1       0.2927196885E+02      30  104    1      -0.1139897440E+08      0.1637038689E+08      0.1821998551E+08      0.2488076553E+03
          7                 8           0            34   65     1       0.2049037784E+02      30  102    1      -0.1021449600E+08      0.1329800584E+08      0.1637038689E+08      0.2488076553E+03
          8                 8           0            34   65     1       0.1434326425E+02      30  102    1      -0.8816339951E+07      0.1038632365E+08      0.1329800584E+08      0.2488076553E+03
          9                 8           0            34   65     1       0.1004028480E+02      30  102    1      -0.5311542231E+07      0.6315034196E+07      0.1038632365E+08      0.2488076553E+03
                                                   Max.-Head-Change                        Max.-Flux-Residual
  Residual-Control   Outer-Iter.   Inner-Iter.     Column Row Layer    Max.-Head-Change    Column Row Layer    Max.-Flux-Residual            L2-New               L2-Old           Solver-Max-Delh
         10                 8           0            34   65     1       0.7028199241E+01      30  102    1      -0.2858471912E+07      0.3553668806E+07      0.6315034196E+07      0.2488076553E+03
         11                 8           0            34   65     1       0.4919739385E+01      30  102    1      -0.1141463860E+07      0.1834980966E+07      0.3553668806E+07      0.2488076553E+03
          0                 9           2            62   16     1       0.1625083980E+03      34  103    1      -0.5799388792E+06      0.1266668487E+07      0.1834980966E+07      0.1625083980E+03
          1                 9           0            62   16     1       0.1137558766E+03      33   73    1      -0.1986099305E+08      0.5047948493E+08      0.1266668487E+07      0.1625083980E+03
          2                 9           0            62   16     1       0.7962911228E+02      33   73    1      -0.1603339080E+08      0.3810398326E+08      0.5047948493E+08      0.1625083980E+03
          3                 9           0            62   16     1       0.5574037765E+02      36   80    1      -0.1564086518E+08      0.2995163830E+08      0.3810398326E+08      0.1625083980E+03
          4                 9           0            62   16     1       0.3901826369E+02      30  104    1      -0.1157290211E+08      0.2302091432E+08      0.2995163830E+08      0.1625083980E+03
          5                 9           0            62   16     1       0.2731278412E+02      30  104    1      -0.1148082283E+08      0.1872351677E+08      0.2302091432E+08      0.1625083980E+03
          6                 9           0            62   16     1       0.1911894856E+02      30  104    1      -0.1141657586E+08      0.1664598544E+08      0.1872351677E+08      0.1625083980E+03
          7                 9           0            62   16     1       0.1338326376E+02      30  102    1      -0.1027046429E+08      0.1431372293E+08      0.1664598544E+08      0.1625083980E+03
                                                   Max.-Head-Change                        Max.-Flux-Residual
  Residual-Control   Outer-Iter.   Inner-Iter.     Column Row Layer    Max.-Head-Change    Column Row Layer    Max.-Flux-Residual            L2-New               L2-Old           Solver-Max-Delh
          8                 9           0            62   16     1       0.9368284474E+01      30  102    1      -0.1017053515E+08      0.1229551085E+08      0.1431372293E+08      0.1625083980E+03
          9                 9           0            62   16     1       0.6557799020E+01      30  102    1      -0.8116057514E+07      0.9449824052E+07      0.1229551085E+08      0.1625083980E+03
         10                 9           0            62   16     1       0.4590459236E+01      30  102    1      -0.5662851668E+07      0.6635308193E+07      0.9449824052E+07      0.1625083980E+03
         11                 9           0            62   16     1       0.3213321410E+01      30  102    1      -0.3945748730E+07      0.4699799304E+07      0.6635308193E+07      0.1625083980E+03
         12                 9           0            62   16     1       0.2249324949E+01      30  102    1      -0.2743845845E+07      0.3386680777E+07      0.4699799304E+07      0.1625083980E+03
         13                 9           0            62   16     1       0.1574527437E+01      30  102    1      -0.1902547723E+07      0.2517210081E+07      0.3386680777E+07      0.1625083980E+03
         14                 9           0            62   16     1       0.1102169187E+01      30  102    1      -0.1313655652E+07      0.1963381558E+07      0.2517210081E+07      0.1625083980E+03
         15                 9           0            62   16     1       0.7715184181E+00      30  102    1      -0.9014393440E+06      0.1631005754E+07      0.1963381558E+07      0.1625083980E+03
         16                 9           0            62   16     1       0.5400628835E+00      30  102    1      -0.6128919200E+06      0.1445527226E+07      0.1631005754E+07      0.1625083980E+03
          0                10           2            62   16     1       0.1624996111E+03      34  103    1      -0.5781077140E+06      0.1349172785E+07      0.1445527226E+07      0.1624996111E+03
                                                   Max.-Head-Change                        Max.-Flux-Residual
  Residual-Control   Outer-Iter.   Inner-Iter.     Column Row Layer    Max.-Head-Change    Column Row Layer    Max.-Flux-Residual            L2-New               L2-Old           Solver-Max-Delh
          1                10           0            62   16     1       0.1137497258E+03      33   73    1      -0.1986102541E+08      0.4739022399E+08      0.1349172785E+07      0.1624996111E+03
          2                10           0            62   16     1       0.7962480673E+02      33   73    1      -0.1610174404E+08      0.3431197863E+08      0.4739022399E+08      0.1624996111E+03
          3                10           0            62   16     1       0.5573736376E+02      36   80    1      -0.1564194825E+08      0.2524847712E+08      0.3431197863E+08      0.1624996111E+03
          4                10           0            62   16     1       0.3901615397E+02      36   80    1      -0.1069179910E+08      0.1684892174E+08      0.2524847712E+08      0.1624996111E+03
          5                10           0            62   16     1       0.2731130731E+02      36   80    1      -0.6037966178E+07      0.1049449088E+08      0.1684892174E+08      0.1624996111E+03
          6                10           0            62   16     1       0.1911791479E+02      33   73    1      -0.3565573392E+07      0.6388624563E+07      0.1049449088E+08      0.1624996111E+03
          7                10           0            62   16     1       0.1338254013E+02      33   73    1      -0.2377682878E+07      0.3758362209E+07      0.6388624563E+07      0.1624996111E+03
          8                10           0            62   16     1       0.9367777930E+01      33   73    1      -0.1546200524E+07      0.2480183656E+07      0.3758362209E+07      0.1624996111E+03
          9                10           0            62   16     1       0.6557444439E+01      33   73    1      -0.9641829716E+06      0.1797478881E+07      0.2480183656E+07      0.1624996111E+03
         10                10           0            62   16     1       0.4590211029E+01      33   73    1      -0.5567805340E+06      0.1485820040E+07      0.1797478881E+07      0.1624996111E+03
                                                   Max.-Head-Change                        Max.-Flux-Residual
  Residual-Control   Outer-Iter.   Inner-Iter.     Column Row Layer    Max.-Head-Change    Column Row Layer    Max.-Flux-Residual            L2-New               L2-Old           Solver-Max-Delh
          0                11           2            62   16     1       0.1624249666E+03      34  103    1      -0.5625920485E+06      0.1369788800E+07      0.1485820040E+07      0.1624249666E+03
          1                11           0            62   16     1       0.1136974747E+03      34   79    1      -0.1953052715E+08      0.4140742855E+08      0.1369788800E+07      0.1624249666E+03
          2                11           0            62   16     1       0.7958823091E+02      36   80    1      -0.1571962157E+08      0.2949534403E+08      0.4140742855E+08      0.1624249666E+03
          3                11           0            62   16     1       0.5571176069E+02      36   80    1      -0.1565115408E+08      0.2225451177E+08      0.2949534403E+08      0.1624249666E+03
          4                11           0            62   16     1       0.3899823182E+02      36   80    1      -0.1196913596E+08      0.1577581687E+08      0.2225451177E+08      0.1624249666E+03
          5                11           0            62   16     1       0.2729876181E+02      36   80    1      -0.7315125176E+07      0.9931208498E+07      0.1577581687E+08      0.1624249666E+03
          6                11           0            62   16     1       0.1910913294E+02      36   80    1      -0.4057960691E+07      0.6159311281E+07      0.9931208498E+07      0.1624249666E+03
          7                11           0            62   16     1       0.1337639283E+02      34   79    1      -0.2046930115E+07      0.3653497696E+07      0.6159311281E+07      0.1624249666E+03
          8                11           0            62   16     1       0.9363474822E+01      34   79    1      -0.1347743758E+07      0.2242305030E+07      0.3653497696E+07      0.1624249666E+03
          9                11           0            62   16     1       0.6554432264E+01      34   79    1      -0.8583211232E+06      0.1715957642E+07      0.2242305030E+07      0.1624249666E+03
                                                   Max.-Head-Change                        Max.-Flux-Residual
  Residual-Control   Outer-Iter.   Inner-Iter.     Column Row Layer    Max.-Head-Change    Column Row Layer    Max.-Flux-Residual            L2-New               L2-Old           Solver-Max-Delh
          0                12           2            29   66     1       0.1523454284E+03      34  103    1      -0.5410214755E+06      0.1475149126E+07      0.1715957642E+07      0.1523454284E+03
          1                12           0            29   66     1       0.1066417981E+03      36   80    1      -0.1583057608E+08      0.3521810306E+08      0.1475149126E+07      0.1523454284E+03
          2                12           0            29   66     1       0.7464925738E+02      36   80    1      -0.1573276926E+08      0.2566432746E+08      0.3521810306E+08      0.1523454284E+03
          3                12           0            29   66     1       0.5225447928E+02      36   80    1      -0.1566430448E+08      0.1988020806E+08      0.2566432746E+08      0.1523454284E+03
          4                12           0            29   66     1       0.3657813487E+02      36   80    1      -0.1379395317E+08      0.1575596096E+08      0.1988020806E+08      0.1523454284E+03
          5                12           0            29   66     1       0.2560469397E+02      36   80    1      -0.9139701667E+07      0.1025556254E+08      0.1575596096E+08      0.1523454284E+03
          6                12           0            29   66     1       0.1792328548E+02      36   80    1      -0.5882368619E+07      0.6582493945E+07      0.1025556254E+08      0.1523454284E+03
          7                12           0            29   66     1       0.1254629962E+02      36   80    1      -0.3602550571E+07      0.4171606677E+07      0.6582493945E+07      0.1523454284E+03
          8                12           0            29   66     1       0.8782409584E+01      36   80    1      -0.2006832336E+07      0.2620612680E+07      0.4171606677E+07      0.1523454284E+03
          9                12           0            29   66     1       0.6147686604E+01      36   80    1      -0.8899052336E+06      0.1752125188E+07      0.2620612680E+07      0.1523454284E+03
                                                   Max.-Head-Change                        Max.-Flux-Residual
  Residual-Control   Outer-Iter.   Inner-Iter.     Column Row Layer    Max.-Head-Change    Column Row Layer    Max.-Flux-Residual            L2-New               L2-Old           Solver-Max-Delh
          0                13           2            29   66     1       0.1522517677E+03      34  103    1      -0.5202777359E+06      0.1464963876E+07      0.1752125188E+07      0.1522517677E+03
          1                13           0            29   66     1       0.1065762356E+03      32   72    1      -0.1579893040E+08      0.2979724115E+08      0.1464963876E+07      0.1522517677E+03
          2                13           0            29   66     1       0.7460336362E+02      40   81    1      -0.8720107330E+07      0.1930289276E+08      0.2979724115E+08      0.1522517677E+03
          3                13           0            29   66     1       0.5222235365E+02      40   81    1      -0.6067117554E+07      0.1162456706E+08      0.1930289276E+08      0.1522517677E+03
          4                13           0            29   66     1       0.3655564693E+02      40   81    1      -0.4210206905E+07      0.7100724748E+07      0.1162456706E+08      0.1522517677E+03
          5                13           0            29   66     1       0.2558895242E+02      40   81    1      -0.2910436772E+07      0.4423151628E+07      0.7100724748E+07      0.1522517677E+03
          6                13           0            29   66     1       0.1791226639E+02      40   81    1      -0.2000630671E+07      0.2746567031E+07      0.4423151628E+07      0.1522517677E+03
          7                13           0            29   66     1       0.1253858626E+02      40   81    1      -0.1363782570E+07      0.1956023517E+07      0.2746567031E+07      0.1522517677E+03
          8                13           0            29   66     1       0.8777010230E+01      40   81    1      -0.9179968242E+06      0.1633027207E+07      0.1956023517E+07      0.1522517677E+03
          0                14           2            29   66     1       0.1521182483E+03      40   81    1      -0.6059506872E+06      0.1508237900E+07      0.1633027207E+07      0.1521182483E+03
                                                   Max.-Head-Change                        Max.-Flux-Residual
  Residual-Control   Outer-Iter.   Inner-Iter.     Column Row Layer    Max.-Head-Change    Column Row Layer    Max.-Flux-Residual            L2-New               L2-Old           Solver-Max-Delh
          1                14           0            29   66     1       0.1064827720E+03      32   72    1      -0.1694996964E+08      0.2851579081E+08      0.1508237900E+07      0.1521182483E+03
          2                14           0            29   66     1       0.7453793914E+02      32   72    1      -0.9696864899E+07      0.1870438427E+08      0.2851579081E+08      0.1521182483E+03
          3                14           0            29   66     1       0.5217655651E+02      39   83    1      -0.5347873518E+07      0.1159829272E+08      0.1870438427E+08      0.1521182483E+03
          4                14           0            29   66     1       0.3652358893E+02      39   83    1      -0.3669502495E+07      0.7036549358E+07      0.1159829272E+08      0.1521182483E+03
          5                14           0            29   66     1       0.2556651182E+02      39   83    1      -0.2494708947E+07      0.4695319640E+07      0.7036549358E+07      0.1521182483E+03
          6                14           0            29   66     1       0.1789655797E+02      39   83    1      -0.1672385890E+07      0.3010079574E+07      0.4695319640E+07      0.1521182483E+03
          7                14           0            29   66     1       0.1252759036E+02      39   83    1      -0.1096775642E+07      0.2052321628E+07      0.3010079574E+07      0.1521182483E+03
          0                15           2            29   66     1       0.1519280578E+03      39   83    1      -0.6938562569E+06      0.1628885249E+07      0.2052321628E+07      0.1519280578E+03
          1                15           0            29   66     1       0.1063496387E+03      32   72    1      -0.1857701401E+08      0.2531607985E+08      0.1628885249E+07      0.1519280578E+03
          2                15           0            29   66     1       0.7444474581E+02      32   72    1      -0.1143282541E+08      0.1682815128E+08      0.2531607985E+08      0.1519280578E+03
                                                   Max.-Head-Change                        Max.-Flux-Residual
  Residual-Control   Outer-Iter.   Inner-Iter.     Column Row Layer    Max.-Head-Change    Column Row Layer    Max.-Flux-Residual            L2-New               L2-Old           Solver-Max-Delh
          3                15           0            29   66     1       0.5211132118E+02      32   72    1      -0.6432802807E+07      0.1096620088E+08      0.1682815128E+08      0.1519280578E+03
          4                15           0            29   66     1       0.3647792420E+02      33  102    1      -0.3526871663E+07      0.6650042458E+07      0.1096620088E+08      0.1519280578E+03
          5                15           0            29   66     1       0.2553454651E+02      29   66    1      -0.2234597132E+07      0.4232625800E+07      0.6650042458E+07      0.1519280578E+03
          6                15           0            29   66     1       0.1787418225E+02      29   66    1      -0.2213441602E+07      0.3248069235E+07      0.4232625800E+07      0.1519280578E+03
          7                15           0            29   66     1       0.1251192736E+02      29   66    1      -0.1634540454E+07      0.2445447821E+07      0.3248069235E+07      0.1519280578E+03
          8                15           0            29   66     1       0.8758349005E+01      29   66    1      -0.1094313201E+07      0.1967469542E+07      0.2445447821E+07      0.1519280578E+03
          0                16           2            29   67     1       0.8026335360E+02      29   66    1      -0.7164974906E+06      0.1748140826E+07      0.1967469542E+07      0.8026335360E+02
          1                16           0            29   67     1       0.5618434656E+02      32   72    1      -0.1953671374E+08      0.2444954739E+08      0.1748140826E+07      0.8026335360E+02
          2                16           0            29   67     1       0.3932904192E+02      32   72    1      -0.1262972684E+08      0.1653777150E+08      0.2444954739E+08      0.8026335360E+02
          3                16           0            29   67     1       0.2753032888E+02      32   72    1      -0.7682259169E+07      0.1128822775E+08      0.1653777150E+08      0.8026335360E+02
                                                   Max.-Head-Change                        Max.-Flux-Residual
  Residual-Control   Outer-Iter.   Inner-Iter.     Column Row Layer    Max.-Head-Change    Column Row Layer    Max.-Flux-Residual            L2-New               L2-Old           Solver-Max-Delh
          4                16           0            29   67     1       0.1927122989E+02      33  102    1      -0.4261550808E+07      0.6915120403E+07      0.1128822775E+08      0.8026335360E+02
          5                16           0            29   67     1       0.1348986069E+02      33  102    1      -0.2875015025E+07      0.4190825306E+07      0.6915120403E+07      0.8026335360E+02
          6                16           0            29   67     1       0.9442902322E+01      33  102    1      -0.1904474680E+07      0.2669123027E+07      0.4190825306E+07      0.8026335360E+02
          7                16           0            29   67     1       0.6610031513E+01      33  102    1      -0.1225113446E+07      0.2062017209E+07      0.2669123027E+07      0.8026335360E+02
          0                17           2            29   67     1       0.8026309570E+02      33  102    1      -0.7495689188E+06      0.1802331128E+07      0.2062017209E+07      0.8026309570E+02
          1                17           0            29   67     1       0.5618416603E+02      32   72    1      -0.1967094217E+08      0.2406401828E+08      0.1802331128E+07      0.8026309570E+02
          2                17           0            29   67     1       0.3932891555E+02      32   72    1      -0.1432161167E+08      0.1702185613E+08      0.2406401828E+08      0.8026309570E+02
          3                17           0            29   67     1       0.2753024042E+02      32   72    1      -0.9448441205E+07      0.1135119643E+08      0.1702185613E+08      0.8026309570E+02
          4                17           0            29   67     1       0.1927116796E+02      32   72    1      -0.6037645113E+07      0.7377161013E+07      0.1135119643E+08      0.8026309570E+02
          5                17           0            29   67     1       0.1348981735E+02      32   72    1      -0.3650295245E+07      0.4691839194E+07      0.7377161013E+07      0.8026309570E+02
                                                   Max.-Head-Change                        Max.-Flux-Residual
  Residual-Control   Outer-Iter.   Inner-Iter.     Column Row Layer    Max.-Head-Change    Column Row Layer    Max.-Flux-Residual            L2-New               L2-Old           Solver-Max-Delh
          6                17           0            29   67     1       0.9442871981E+01      32   72    1      -0.1979251970E+07      0.3008537096E+07      0.4691839194E+07      0.8026309570E+02
          7                17           0            29   67     1       0.6610010274E+01      37   83    1      -0.9272160157E+06      0.2103308332E+07      0.3008537096E+07      0.8026309570E+02
          0                18           2            29   67     1       0.8025815463E+02      33  102    1      -0.6909235903E+06      0.1811594351E+07      0.2103308332E+07      0.8025815463E+02
          1                18           0            29   67     1       0.5618070728E+02      32   72    1      -0.1980325437E+08      0.2226635811E+08      0.1811594351E+07      0.8025815463E+02
          2                18           0            29   67     1       0.3932649443E+02      32   72    1      -0.1598806928E+08      0.1730130369E+08      0.2226635811E+08      0.8025815463E+02
          3                18           0            29   67     1       0.2752854563E+02      32   72    1      -0.1118808924E+08      0.1206472711E+08      0.1730130369E+08      0.8025815463E+02
          4                18           0            29   67     1       0.1926998161E+02      32   72    1      -0.7828513787E+07      0.8519926992E+07      0.1206472711E+08      0.8025815463E+02
          5                18           0            29   67     1       0.1348898690E+02      32   72    1      -0.5477012159E+07      0.5963776855E+07      0.8519926992E+07      0.8025815463E+02
          6                18           0            29   67     1       0.9442290669E+01      32   72    1      -0.3831059612E+07      0.4281590047E+07      0.5963776855E+07      0.8025815463E+02
          7                18           0            29   67     1       0.6609603356E+01      32   72    1      -0.2678941145E+07      0.3201367926E+07      0.4281590047E+07      0.8025815463E+02
                                                   Max.-Head-Change                        Max.-Flux-Residual
  Residual-Control   Outer-Iter.   Inner-Iter.     Column Row Layer    Max.-Head-Change    Column Row Layer    Max.-Flux-Residual            L2-New               L2-Old           Solver-Max-Delh
          8                18           0            29   67     1       0.4626722270E+01      32   72    1      -0.1872481898E+07      0.2548131125E+07      0.3201367926E+07      0.8025815463E+02
          9                18           0            29   67     1       0.3238705534E+01      32   72    1      -0.1307972030E+07      0.2172662375E+07      0.2548131125E+07      0.8025815463E+02
          0                19           2            29   67     1       0.8025372242E+02      32   72    1      -0.9128208113E+06      0.1973339899E+07      0.2172662375E+07      0.8025372242E+02
          1                19           0            29   67     1       0.5617760474E+02      30  103    1      -0.6192269204E+07      0.8127175066E+07      0.1973339899E+07      0.8025372242E+02
          2                19           0            29   67     1       0.3932432264E+02      30  103    1      -0.3943305985E+07      0.5113719720E+07      0.8127175066E+07      0.8025372242E+02
          3                19           0            29   67     1       0.2752702538E+02      30  103    1      -0.2369151596E+07      0.3462463056E+07      0.5113719720E+07      0.8025372242E+02
          4                19           0            29   67     1       0.1926891744E+02      29   67    1      -0.2029032510E+07      0.2808953569E+07      0.3462463056E+07      0.8025372242E+02
          5                19           0            29   67     1       0.1348824198E+02      29   67    1      -0.1430985535E+07      0.2179104210E+07      0.2808953569E+07      0.8025372242E+02
          0                20           2            58   10     1       0.1441126357E+02      29   67    1      -0.8486773060E+06      0.1873101265E+07      0.2179104210E+07      0.1441126357E+02
          1                20           0            58   10     1       0.1008788433E+02      30  103    1      -0.7466933918E+07      0.9272209645E+07      0.1873101265E+07      0.1441126357E+02
                                                   Max.-Head-Change                        Max.-Flux-Residual
  Residual-Control   Outer-Iter.   Inner-Iter.     Column Row Layer    Max.-Head-Change    Column Row Layer    Max.-Flux-Residual            L2-New               L2-Old           Solver-Max-Delh
          2                20           0            58   10     1       0.7061518911E+01      30  103    1      -0.5213466998E+07      0.6108470179E+07      0.9272209645E+07      0.1441126357E+02
          3                20           0            58   10     1       0.4943063153E+01      30  103    1      -0.3636160559E+07      0.4077951947E+07      0.6108470179E+07      0.1441126357E+02
          4                20           0            58   10     1       0.3460144148E+01      30  103    1      -0.2532105055E+07      0.2885671469E+07      0.4077951947E+07      0.1441126357E+02
          5                20           0            58   10     1       0.2422100863E+01      30  103    1      -0.1759295119E+07      0.2301000522E+07      0.2885671469E+07      0.1441126357E+02
          0                21           2            58   10     1       0.1440777406E+02      30  103    1      -0.1218342335E+07      0.2001859497E+07      0.2301000522E+07      0.1440777406E+02
          1                21           0            58   10     1       0.1008544167E+02      36   84    1      -0.6117476865E+07      0.6359460100E+07      0.2001859497E+07      0.1440777406E+02
          2                21           0            58   10     1       0.7059809047E+01      36   84    1      -0.3972374499E+07      0.4049964900E+07      0.6359460100E+07      0.1440777406E+02
          3                21           0            58   10     1       0.4941866249E+01      36   84    1      -0.2470912224E+07      0.2691344647E+07      0.4049964900E+07      0.1440777406E+02
          0                22           2            58   10     1       0.1440065955E+02      36   84    1      -0.1419942233E+07      0.1957178798E+07      0.2691344647E+07      0.1440065955E+02
          1                22           0            58   10     1       0.1008046152E+02      36   82    1      -0.2138764780E+07      0.3790061239E+07      0.1957178798E+07      0.1440065955E+02
                                                   Max.-Head-Change                        Max.-Flux-Residual
  Residual-Control   Outer-Iter.   Inner-Iter.     Column Row Layer    Max.-Head-Change    Column Row Layer    Max.-Flux-Residual            L2-New               L2-Old           Solver-Max-Delh
          0                23           2            58   10     1      -0.4405324683E+01      12  127    1      -0.1237496790E+07      0.1936867203E+07      0.3790061239E+07     -0.4405324683E+01
          0                24           2            14  126     1       0.1145563114E+01      24  110    1      -0.1199796398E+07      0.1239611274E+07      0.1936867203E+07      0.1145563114E+01
          0                25           2            60    6     1       0.8799077365E+00      14  126    1      -0.3068503154E+06      0.4531834189E+06      0.1239611274E+07      0.8799077365E+00
          0                26           2            60    6     1       0.8798303257E+00      14  126    1      -0.1534510714E+05      0.2660534863E+05      0.4531834189E+06      0.8798303257E+00
          1                26           0            60    6     1       0.6158812175E+00      26  109    1      -0.9049167692E+05      0.9597308641E+05      0.2660534863E+05      0.8798303257E+00
          0                27           2            60    6     1       0.8797761511E+00      31   99    1      -0.1536894067E+05      0.1776639345E+05      0.9597308641E+05      0.8797761511E+00
          1                27           0            60    6     1       0.6158432953E+00      26  109    1      -0.3942328537E+06      0.3945845125E+06      0.1776639345E+05      0.8797761511E+00
          2                27           0            60    6     1       0.4310902993E+00      26  109    1      -0.2621361797E+06      0.2624428472E+06      0.3945845125E+06      0.8797761511E+00
          3                27           0            60    6     1       0.3017632044E+00      26  109    1      -0.1696688208E+06      0.1700956529E+06      0.2624428472E+06      0.8797761511E+00
          4                27           0            60    6     1       0.2112342395E+00      26  109    1      -0.1049418233E+06      0.1057303907E+06      0.1700956529E+06      0.8797761511E+00
                                                   Max.-Head-Change                        Max.-Flux-Residual
  Residual-Control   Outer-Iter.   Inner-Iter.     Column Row Layer    Max.-Head-Change    Column Row Layer    Max.-Flux-Residual            L2-New               L2-Old           Solver-Max-Delh
          5                27           0            60    6     1       0.1478639651E+00      26  109    1      -0.5963300057E+05      0.6125991583E+05      0.1057303907E+06      0.8797761511E+00
          6                27           0            60    6     1       0.1035047738E+00      26  109    1      -0.2791686182E+05      0.3170413894E+05      0.6125991583E+05      0.8797761511E+00
          0                28           2            60    6     1       0.8797670471E+00      31   99    1      -0.1365120740E+05      0.1681191925E+05      0.3170413894E+05      0.8797670471E+00
          0                29           2            60    6     1       0.8796896735E+00      31   99    1      -0.6824277118E+03      0.8419340747E+03      0.1681191925E+05      0.8796896735E+00
          1                29           0            60    6     1       0.6157827610E+00      15  126    1      -0.3154695431E+06      0.3157485258E+06      0.8419340747E+03      0.8796896735E+00
          2                29           0            60    6     1       0.4310479253E+00      15  126    1      -0.2138699356E+06      0.2140224390E+06      0.3157485258E+06      0.8796896735E+00
          3                29           0            60    6     1       0.3017335426E+00      15  126    1      -0.1427503344E+06      0.1428237793E+06      0.2140224390E+06      0.8796896735E+00
          4                29           0            60    6     1       0.2112134762E+00      15  126    1      -0.9296667450E+05      0.9299215932E+05      0.1428237793E+06      0.8796896735E+00
          5                29           0            60    6     1       0.1478494308E+00      15  126    1      -0.5811814268E+05      0.5812303448E+05      0.9299215932E+05      0.8796896735E+00
          6                29           0            60    6     1       0.1034945998E+00      15  126    1      -0.3372418527E+05      0.3373160177E+05      0.5812303448E+05      0.8796896735E+00
                                                   Max.-Head-Change                        Max.-Flux-Residual
  Residual-Control   Outer-Iter.   Inner-Iter.     Column Row Layer    Max.-Head-Change    Column Row Layer    Max.-Flux-Residual            L2-New               L2-Old           Solver-Max-Delh
          7                29           0            60    6     1       0.7244621864E-01      15  126    1      -0.1664842245E+05      0.1666519517E+05      0.3373160177E+05      0.8796896735E+00
          8                29           0            60    6     1       0.5071235219E-01      15  126    1      -0.4695392142E+04      0.4759025998E+04      0.1666519517E+05      0.8796896735E+00
          0                30           2            60    6     1       0.8796852139E+00      31   99    1      -0.6450533596E+03      0.7959941218E+03      0.4759025998E+04      0.8796852139E+00
          1                30           0            60    6     1       0.6157796392E+00      15  126    1      -0.3339910439E+06      0.3342981261E+06      0.7959941218E+03      0.8796852139E+00
          2                30           0            60    6     1       0.4310457401E+00      15  126    1      -0.2326919692E+06      0.2328680104E+06      0.3342981261E+06      0.8796852139E+00
          3                30           0            60    6     1       0.3017320129E+00      15  126    1      -0.1617827402E+06      0.1618774327E+06      0.2328680104E+06      0.8796852139E+00
          4                30           0            60    6     1       0.2112124055E+00      15  126    1      -0.1121463405E+06      0.1121894744E+06      0.1618774327E+06      0.8796852139E+00
          5                30           0            60    6     1       0.1478486813E+00      15  126    1      -0.7740089066E+05      0.7741501556E+05      0.1121894744E+06      0.8796852139E+00
          6                30           0            60    6     1       0.1034940752E+00      15  126    1      -0.5307909053E+05      0.5308349192E+05      0.7741501556E+05      0.8796852139E+00
          7                30           0            60    6     1       0.7244585137E-01      15  126    1      -0.3605383777E+05      0.3606076281E+05      0.5308349192E+05      0.8796852139E+00
                                                   Max.-Head-Change                        Max.-Flux-Residual
  Residual-Control   Outer-Iter.   Inner-Iter.     Column Row Layer    Max.-Head-Change    Column Row Layer    Max.-Flux-Residual            L2-New               L2-Old           Solver-Max-Delh
          8                30           0            60    6     1       0.5071209510E-01      15  126    1      -0.2413616448E+05      0.2414730064E+05      0.3606076281E+05      0.8796852139E+00
          9                30           0            60    6     1       0.3549846596E-01      15  126    1      -0.1579379501E+05      0.1581168254E+05      0.2414730064E+05      0.8796852139E+00
         10                30           0            60    6     1       0.2484892575E-01      15  126    1      -0.9954137314E+04      0.9983484534E+04      0.1581168254E+05      0.8796852139E+00
         11                30           0            60    6     1       0.1739424773E-01      15  126    1      -0.5866377400E+04      0.5917223954E+04      0.9983484534E+04      0.8796852139E+00
         12                30           0            60    6     1       0.1217597320E-01      15  126    1      -0.3004945707E+04      0.3104638924E+04      0.5917223954E+04      0.8796852139E+00
         13                30           0            60    6     1       0.8523181097E-02      15  126    1      -0.1001943654E+04      0.1272781978E+04      0.3104638924E+04      0.8796852139E+00
          0                31           2            60    6     1       0.8796844643E+00      31   99    1      -0.6391158082E+03      0.7886965473E+03      0.1272781978E+04      0.8796844643E+00
          1                31           0            60    6     1       0.6157791146E+00      15  126    1      -0.3370947420E+06      0.3374066473E+06      0.7886965473E+03      0.8796844643E+00
          2                31           0            60    6     1       0.4310453728E+00      15  126    1      -0.2358460289E+06      0.2360260820E+06      0.3374066473E+06      0.8796844643E+00
          3                31           0            60    6     1       0.3017317559E+00      15  126    1      -0.1649720530E+06      0.1650703918E+06      0.2360260820E+06      0.8796844643E+00
                                                   Max.-Head-Change                        Max.-Flux-Residual
  Residual-Control   Outer-Iter.   Inner-Iter.     Column Row Layer    Max.-Head-Change    Column Row Layer    Max.-Flux-Residual            L2-New               L2-Old           Solver-Max-Delh
          4                31           0            60    6     1       0.2112122255E+00      15  126    1      -0.1153603304E+06      0.1154066477E+06      0.1650703918E+06      0.8796844643E+00
          5                31           0            60    6     1       0.1478485553E+00      15  126    1      -0.8063215444E+05      0.8064853103E+05      0.1154066477E+06      0.8796844643E+00
          6                31           0            60    6     1       0.1034939870E+00      15  126    1      -0.5632244605E+05      0.5632716126E+05      0.8064853103E+05      0.8796844643E+00
          7                31           0            60    6     1       0.7244578965E-01      15  126    1      -0.3930565749E+05      0.3931189366E+05      0.5632716126E+05      0.8796844643E+00
          8                31           0            60    6     1       0.5071205189E-01      15  126    1      -0.2739390915E+05      0.2740354220E+05      0.3931189366E+05      0.8796844643E+00
          9                31           0            60    6     1       0.3549843572E-01      15  126    1      -0.1905568714E+05      0.1907024446E+05      0.2740354220E+05      0.8796844643E+00
         10                31           0            60    6     1       0.2484890458E-01      15  126    1      -0.1321893265E+05      0.1324064198E+05      0.1907024446E+05      0.8796844643E+00
         11                31           0            60    6     1       0.1739423291E-01      15  126    1      -0.9133204993E+04      0.9165349833E+04      0.1324064198E+05      0.8796844643E+00
         12                31           0            60    6     1       0.1217596283E-01      15  126    1      -0.6273195877E+04      0.6320675392E+04      0.9165349833E+04      0.8796844643E+00
         13                31           0            60    6     1       0.8523173835E-02      15  126    1      -0.4271189627E+04      0.4341414779E+04      0.6320675392E+04      0.8796844643E+00
                                                   Max.-Head-Change                        Max.-Flux-Residual
  Residual-Control   Outer-Iter.   Inner-Iter.     Column Row Layer    Max.-Head-Change    Column Row Layer    Max.-Flux-Residual            L2-New               L2-Old           Solver-Max-Delh
         14                31           0            60    6     1       0.5966221583E-02      15  126    1      -0.2869785324E+04      0.2974108618E+04      0.4341414779E+04      0.8796844643E+00
         15                31           0            60    6     1       0.4176355037E-02      15  126    1      -0.1888802351E+04      0.2044657193E+04      0.2974108618E+04      0.8796844643E+00
         16                31           0            60    6     1       0.2923448476E-02      15  126    1      -0.1202114294E+04      0.1435447397E+04      0.2044657193E+04      0.8796844643E+00
         17                31           0            60    6     1       0.2046413898E-02      15  126    1      -0.7214326675E+03      0.1066567166E+04      0.1435447397E+04      0.8796844643E+00
         18                31           0            60    6     1       0.1432489704E-02      31   99    1      -0.6377033096E+03      0.8754778821E+03      0.1066567166E+04      0.8796844643E+00
          0                32           2            60    6     1       0.8796843384E+00      31   99    1      -0.6381270591E+03      0.8008854160E+03      0.8754778821E+03      0.8796843384E+00
          1                32           0            60    6     1       0.6157790264E+00      48   29    1      -0.1422792365E+05      0.1453463272E+05      0.8008854160E+03      0.8796843384E+00
          2                32           0            60    6     1       0.4310453111E+00      48   29    1      -0.9216479347E+04      0.9245269471E+04      0.1453463272E+05      0.8796843384E+00
          3                32           0            60    6     1       0.3017317126E+00      48   29    1      -0.5708498330E+04      0.5724624624E+04      0.9245269471E+04      0.8796843384E+00
          4                32           0            60    6     1       0.2112121953E+00      48   29    1      -0.3252926328E+04      0.3297558440E+04      0.5724624624E+04      0.8796843384E+00
                                                   Max.-Head-Change                        Max.-Flux-Residual
  Residual-Control   Outer-Iter.   Inner-Iter.     Column Row Layer    Max.-Head-Change    Column Row Layer    Max.-Flux-Residual            L2-New               L2-Old           Solver-Max-Delh
          5                32           0            60    6     1       0.1478485342E+00      48   29    1      -0.1534033144E+04      0.1654104863E+04      0.3297558440E+04      0.8796843384E+00
          0                33           2            60    6     1       0.8796713369E+00      31   99    1      -0.5362341886E+03      0.7502200684E+03      0.1654104863E+04      0.8796713369E+00
          1                33           0            60    6     1       0.6157699253E+00      64   47    1      -0.3791530936E+04      0.4819042380E+04      0.7502200684E+03      0.8796713369E+00
          2                33           0            60    6     1       0.4310389404E+00      42   47    1      -0.1501320509E+04      0.1662311993E+04      0.4819042380E+04      0.8796713369E+00
          0                34           2            60    6     1       0.8796334345E+00      42   47    1      -0.4705739412E+03      0.6192107746E+03      0.1662311993E+04      0.8796334345E+00
          1                34           0            60    6     1       0.6157433937E+00      64   47    1      -0.8867042395E+04      0.8867224409E+04      0.6192107746E+03      0.8796334345E+00
          2                34           0            60    6     1       0.4310203682E+00      64   47    1      -0.5750647795E+04      0.5754541205E+04      0.8867224409E+04      0.8796334345E+00
          3                34           0            60    6     1       0.3017142526E+00      64   47    1      -0.3569183167E+04      0.3584688786E+04      0.5754541205E+04      0.8796334345E+00
          4                34           0            60    6     1       0.2111999732E+00      64   47    1      -0.2042163615E+04      0.2084634248E+04      0.3584688786E+04      0.8796334345E+00
          5                34           0            60    6     1       0.1478399787E+00      64   47    1      -0.9732527218E+03      0.1084616854E+04      0.2084634248E+04      0.8796334345E+00
                                                   Max.-Head-Change                        Max.-Flux-Residual
  Residual-Control   Outer-Iter.   Inner-Iter.     Column Row Layer    Max.-Head-Change    Column Row Layer    Max.-Flux-Residual            L2-New               L2-Old           Solver-Max-Delh
          0                35           2            60    6     1       0.8796204353E+00      42   47    1      -0.3954390573E+03      0.5673539855E+03      0.1084616854E+04      0.8796204353E+00

    ------------------------------------------------
       NWT REQUIRED           35 OUTER ITERATIONS 
       AND A TOTAL OF         70 INNER ITERATIONS.
    ------------------------------------------------

 OUTPUT CONTROL FOR STRESS PERIOD    1   TIME STEP    1
    SAVE HEAD FOR ALL LAYERS
    SAVE DRAWDOWN FOR ALL LAYERS
    SAVE BUDGET
    PRINT BUDGET
 UBDSV1 SAVING "         STORAGE" ON UNIT   9 AT TIME STEP  1, STRESS PERIOD   1
 UBDSV2 SAVING "   CONSTANT HEAD" ON UNIT   9 AT TIME STEP  1, STRESS PERIOD   1
 UBDSV1 SAVING "FLOW RIGHT FACE " ON UNIT   9 AT TIME STEP  1, STRESS PERIOD   1
 UBDSV1 SAVING "FLOW FRONT FACE " ON UNIT   9 AT TIME STEP  1, STRESS PERIOD   1
 UBDSV4 SAVING "   RIVER LEAKAGE" ON UNIT   9 AT TIME STEP  1, STRESS PERIOD   1
 UBDSV3 SAVING "        RECHARGE" ON UNIT   9 AT TIME STEP  1, STRESS PERIOD   1

 HEAD WILL BE SAVED ON UNIT   37 AT END OF TIME STEP    1, STRESS PERIOD    1

 DRAWDOWN WILL BE SAVED ON UNIT   38 AT END OF TIME STEP    1, STRESS PERIOD    1
1
  VOLUMETRIC BUDGET FOR ENTIRE MODEL AT END OF TIME STEP    1, STRESS PERIOD   1
  ------------------------------------------------------------------------------

     CUMULATIVE VOLUMES      L**3       RATES FOR THIS TIME STEP      L**3/T
     ------------------                 ------------------------

           IN:                                      IN:
           ---                                      ---
             STORAGE =      955762.5625               STORAGE =      955762.5625
       CONSTANT HEAD =           0.0000         CONSTANT HEAD =           0.0000
       RIVER LEAKAGE =     4320607.0000         RIVER LEAKAGE =     4320607.0000
            RECHARGE =         532.8450              RECHARGE =         532.8450

            TOTAL IN =     5276902.5000              TOTAL IN =     5276902.5000

          OUT:                                     OUT:
          ----                                     ----
             STORAGE =     5276635.5000               STORAGE =     5276635.5000
       CONSTANT HEAD =           0.0000         CONSTANT HEAD =           0.0000
       RIVER LEAKAGE =           0.0000         RIVER LEAKAGE =           0.0000
            RECHARGE =           0.0000              RECHARGE =           0.0000

           TOTAL OUT =     5276635.5000             TOTAL OUT =     5276635.5000

            IN - OUT =         267.0000              IN - OUT =         267.0000

 PERCENT DISCREPANCY =           0.01     PERCENT DISCREPANCY =           0.01






         TIME SUMMARY AT END OF TIME STEP    1 IN STRESS PERIOD    1
                    SECONDS     MINUTES      HOURS       DAYS        YEARS
                    -----------------------------------------------------------
   TIME STEP LENGTH  86400.      1440.0      24.000      1.0000     2.73785E-03
 STRESS PERIOD TIME  86400.      1440.0      24.000      1.0000     2.73785E-03
         TOTAL TIME  86400.      1440.0      24.000      1.0000     2.73785E-03
1
 
 SOLVING FOR HEAD 
                                                   Max.-Head-Change                        Max.-Flux-Residual
  Residual-Control   Outer-Iter.   Inner-Iter.     Column Row Layer    Max.-Head-Change    Column Row Layer    Max.-Flux-Residual            L2-New               L2-Old           Solver-Max-Delh
          0                 1           2            41   65     1       0.3183903677E+01      34  103    1       0.1027686432E+07      0.1406342244E+07      0.5444544769E+02      0.3183903677E+01
          0                 2           2            60    6     1       0.7042955805E+00      34  103    1      -0.1027893780E+06      0.1487335108E+06      0.1406342244E+07      0.7042955805E+00
          0                 3           2            60    6     1       0.7042459812E+00      34  103    1      -0.5139620991E+04      0.7437722014E+04      0.1487335108E+06      0.7042459812E+00
          0                 4           2            60    6     1       0.7041963924E+00      44   35    1      -0.5429790491E+03      0.6585683799E+03      0.7437722014E+04      0.7041963924E+00
          1                 4           0            60    6     1       0.4929374663E+00      58   39    1      -0.1391150388E+05      0.1939152416E+05      0.6585683799E+03      0.7041963924E+00
          2                 4           0            60    6     1       0.3450562205E+00      58   39    1      -0.9012967472E+04      0.1105171818E+05      0.1939152416E+05      0.7041963924E+00
          3                 4           0            60    6     1       0.2415393502E+00      58   39    1      -0.5584020651E+04      0.6036235921E+04      0.1105171818E+05      0.7041963924E+00
          4                 4           0            60    6     1       0.1690775423E+00      58   39    1      -0.3183771933E+04      0.3416151356E+04      0.6036235921E+04      0.7041963924E+00
          5                 4           0            60    6     1       0.1183542776E+00      58   39    1      -0.1503604728E+04      0.1748986875E+04      0.3416151356E+04      0.7041963924E+00
          6                 4           0            60    6     1       0.8284799290E-01      44   35    1      -0.4562834974E+03      0.7789805421E+03      0.1748986875E+04      0.7041963924E+00
                                                   Max.-Head-Change                        Max.-Flux-Residual
  Residual-Control   Outer-Iter.   Inner-Iter.     Column Row Layer    Max.-Head-Change    Column Row Layer    Max.-Flux-Residual            L2-New               L2-Old           Solver-Max-Delh
          0                 5           2            60    6     1       0.7041905592E+00      44   35    1      -0.4822921623E+03      0.6297327728E+03      0.7789805421E+03      0.7041905592E+00
          1                 5           0            60    6     1       0.4929333830E+00      58   39    1      -0.1583106612E+05      0.2234715419E+05      0.6297327728E+03      0.7041905592E+00
          2                 5           0            60    6     1       0.3450533622E+00      58   39    1      -0.1093295397E+05      0.1390711075E+05      0.2234715419E+05      0.7041905592E+00
          3                 5           0            60    6     1       0.2415373495E+00      58   39    1      -0.7504304114E+04      0.8394404122E+04      0.1390711075E+05      0.7041905592E+00
          4                 5           0            60    6     1       0.1690761417E+00      58   39    1      -0.5104263271E+04      0.5195832330E+04      0.8394404122E+04      0.7041905592E+00
          5                 5           0            60    6     1       0.1183532972E+00      58   39    1      -0.3424241577E+04      0.3458608275E+04      0.5195832330E+04      0.7041905592E+00
          6                 5           0            60    6     1       0.8284730663E-01      58   39    1      -0.2248229776E+04      0.2309709543E+04      0.3458608275E+04      0.7041905592E+00
          7                 5           0            60    6     1       0.5799311365E-01      58   39    1      -0.1425023177E+04      0.1530912949E+04      0.2309709543E+04      0.7041905592E+00
          8                 5           0            60    6     1       0.4059517887E-01      58   39    1      -0.8487793762E+03      0.1028328020E+04      0.1530912949E+04      0.7041905592E+00
          9                 5           0            60    6     1       0.2841662472E-01      44   35    1      -0.4558788637E+03      0.7434858146E+03      0.1028328020E+04      0.7041905592E+00
                                                   Max.-Head-Change                        Max.-Flux-Residual
  Residual-Control   Outer-Iter.   Inner-Iter.     Column Row Layer    Max.-Head-Change    Column Row Layer    Max.-Flux-Residual            L2-New               L2-Old           Solver-Max-Delh
          0                 6           2            60    6     1       0.7041885584E+00      44   35    1      -0.4638028535E+03      0.6271934541E+03      0.7434858146E+03      0.7041885584E+00
          1                 6           0            60    6     1       0.4929319825E+00      42   46    1      -0.1184321962E+05      0.1674207855E+05      0.6271934541E+03      0.7041885584E+00
          2                 6           0            60    6     1       0.3450523819E+00      42   46    1      -0.6999504931E+04      0.9553103704E+04      0.1674207855E+05      0.7041885584E+00
          3                 6           0            60    6     1       0.2415366632E+00      42   46    1      -0.3608932704E+04      0.4650781752E+04      0.9553103704E+04      0.7041885584E+00
          4                 6           0            60    6     1       0.1690756614E+00      42   46    1      -0.1235545905E+04      0.1689913194E+04      0.4650781752E+04      0.7041885584E+00

    ------------------------------------------------
       NWT REQUIRED            6 OUTER ITERATIONS 
       AND A TOTAL OF         12 INNER ITERATIONS.
    ------------------------------------------------

 OUTPUT CONTROL FOR STRESS PERIOD    1   TIME STEP    2
    SAVE HEAD FOR ALL LAYERS
    SAVE DRAWDOWN FOR ALL LAYERS
    SAVE BUDGET
    PRINT BUDGET
 UBDSV1 SAVING "         STORAGE" ON UNIT   9 AT TIME STEP  2, STRESS PERIOD   1
 UBDSV2 SAVING "   CONSTANT HEAD" ON UNIT   9 AT TIME STEP  2, STRESS PERIOD   1
 UBDSV1 SAVING "FLOW RIGHT FACE " ON UNIT   9 AT TIME STEP  2, STRESS PERIOD   1
 UBDSV1 SAVING "FLOW FRONT FACE " ON UNIT   9 AT TIME STEP  2, STRESS PERIOD   1
 UBDSV4 SAVING "   RIVER LEAKAGE" ON UNIT   9 AT TIME STEP  2, STRESS PERIOD   1
 UBDSV3 SAVING "        RECHARGE" ON UNIT   9 AT TIME STEP  2, STRESS PERIOD   1

 HEAD WILL BE SAVED ON UNIT   37 AT END OF TIME STEP    2, STRESS PERIOD    1

 DRAWDOWN WILL BE SAVED ON UNIT   38 AT END OF TIME STEP    2, STRESS PERIOD    1
1
  VOLUMETRIC BUDGET FOR ENTIRE MODEL AT END OF TIME STEP    2, STRESS PERIOD   1
  ------------------------------------------------------------------------------

     CUMULATIVE VOLUMES      L**3       RATES FOR THIS TIME STEP      L**3/T
     ------------------                 ------------------------

           IN:                                      IN:
           ---                                      ---
             STORAGE =     1911109.7500               STORAGE =      955347.1250
       CONSTANT HEAD =           0.0000         CONSTANT HEAD =           0.0000
       RIVER LEAKAGE =     8641214.0000         RIVER LEAKAGE =     4320607.0000
            RECHARGE =         743.0963              RECHARGE =         210.2513

            TOTAL IN =    10553067.0000              TOTAL IN =     5276164.5000

          OUT:                                     OUT:
          ----                                     ----
             STORAGE =    10554098.0000               STORAGE =     5277463.0000
       CONSTANT HEAD =           0.0000         CONSTANT HEAD =           0.0000
       RIVER LEAKAGE =           0.0000         RIVER LEAKAGE =           0.0000
            RECHARGE =           0.0000              RECHARGE =           0.0000

           TOTAL OUT =    10554098.0000             TOTAL OUT =     5277463.0000

            IN - OUT =       -1031.0000              IN - OUT =       -1298.5000

 PERCENT DISCREPANCY =          -0.01     PERCENT DISCREPANCY =          -0.02






         TIME SUMMARY AT END OF TIME STEP    2 IN STRESS PERIOD    1
                    SECONDS     MINUTES      HOURS       DAYS        YEARS
                    -----------------------------------------------------------
   TIME STEP LENGTH  86400.      1440.0      24.000      1.0000     2.73785E-03
 STRESS PERIOD TIME 1.72800E+05  2880.0      48.000      2.0000     5.47570E-03
         TOTAL TIME 1.72800E+05  2880.0      48.000      2.0000     5.47570E-03
1
 
 SOLVING FOR HEAD 
                                                   Max.-Head-Change                        Max.-Flux-Residual
  Residual-Control   Outer-Iter.   Inner-Iter.     Column Row Layer    Max.-Head-Change    Column Row Layer    Max.-Flux-Residual            L2-New               L2-Old           Solver-Max-Delh
          0                 1           2            41   65     1       0.3182918901E+01      34  103    1       0.1027619128E+07      0.1405958859E+07      0.4843955743E+03      0.3182918901E+01
          0                 2           2            62   28     1       0.6159473945E+00      34  103    1      -0.1027826426E+06      0.1424406802E+06      0.1405958859E+07      0.6159473945E+00
          0                 3           2            62   28     1       0.6118645353E+00      34  103    1      -0.5139284188E+04      0.7122799848E+04      0.1424406802E+06      0.6118645353E+00
          1                 3           0            62   28     1       0.4283051674E+00      58   53    1      -0.1403536675E+05      0.1403989951E+05      0.7122799848E+04      0.6118645353E+00
          2                 3           0            62   28     1       0.2998136121E+00      58   53    1      -0.8287379192E+04      0.8624037623E+04      0.1403989951E+05      0.6118645353E+00
          0                 4           2            62   28     1       0.6097982028E+00      58   53    1      -0.4263787972E+04      0.5716033911E+04      0.8624037623E+04      0.6097982028E+00

    ------------------------------------------------
       NWT REQUIRED            4 OUTER ITERATIONS 
       AND A TOTAL OF          8 INNER ITERATIONS.
    ------------------------------------------------

 OUTPUT CONTROL FOR STRESS PERIOD    1   TIME STEP    3
    SAVE HEAD FOR ALL LAYERS
    SAVE DRAWDOWN FOR ALL LAYERS
    SAVE BUDGET
    PRINT BUDGET
 UBDSV1 SAVING "         STORAGE" ON UNIT   9 AT TIME STEP  3, STRESS PERIOD   1
 UBDSV2 SAVING "   CONSTANT HEAD" ON UNIT   9 AT TIME STEP  3, STRESS PERIOD   1
 UBDSV1 SAVING "FLOW RIGHT FACE " ON UNIT   9 AT TIME STEP  3, STRESS PERIOD   1
 UBDSV1 SAVING "FLOW FRONT FACE " ON UNIT   9 AT TIME STEP  3, STRESS PERIOD   1
 UBDSV4 SAVING "   RIVER LEAKAGE" ON UNIT   9 AT TIME STEP  3, STRESS PERIOD   1
 UBDSV3 SAVING "        RECHARGE" ON UNIT   9 AT TIME STEP  3, STRESS PERIOD   1

 HEAD WILL BE SAVED ON UNIT   37 AT END OF TIME STEP    3, STRESS PERIOD    1

 DRAWDOWN WILL BE SAVED ON UNIT   38 AT END OF TIME STEP    3, STRESS PERIOD    1
1
  VOLUMETRIC BUDGET FOR ENTIRE MODEL AT END OF TIME STEP    3, STRESS PERIOD   1
  ------------------------------------------------------------------------------

     CUMULATIVE VOLUMES      L**3       RATES FOR THIS TIME STEP      L**3/T
     ------------------                 ------------------------

           IN:                                      IN:
           ---                                      ---
             STORAGE =     2865785.5000               STORAGE =      954675.7500
       CONSTANT HEAD =           0.0000         CONSTANT HEAD =           0.0000
       RIVER LEAKAGE =    12961821.0000         RIVER LEAKAGE =     4320607.0000
            RECHARGE =         846.9857              RECHARGE =         103.8894

            TOTAL IN =    15828454.0000              TOTAL IN =     5275387.0000

          OUT:                                     OUT:
          ----                                     ----
             STORAGE =    15829940.0000               STORAGE =     5275842.5000
       CONSTANT HEAD =           0.0000         CONSTANT HEAD =           0.0000
       RIVER LEAKAGE =         258.3994         RIVER LEAKAGE =         258.3994
            RECHARGE =           0.0000              RECHARGE =           0.0000

           TOTAL OUT =    15830198.0000             TOTAL OUT =     5276101.0000

            IN - OUT =       -1744.0000              IN - OUT =        -714.0000

 PERCENT DISCREPANCY =          -0.01     PERCENT DISCREPANCY =          -0.01






         TIME SUMMARY AT END OF TIME STEP    3 IN STRESS PERIOD    1
                    SECONDS     MINUTES      HOURS       DAYS        YEARS
                    -----------------------------------------------------------
   TIME STEP LENGTH  86400.      1440.0      24.000      1.0000     2.73785E-03
 STRESS PERIOD TIME 2.59200E+05  4320.0      72.000      3.0000     8.21355E-03
         TOTAL TIME 2.59200E+05  4320.0      72.000      3.0000     8.21355E-03
1
 
 SOLVING FOR HEAD 
                                                   Max.-Head-Change                        Max.-Flux-Residual
  Residual-Control   Outer-Iter.   Inner-Iter.     Column Row Layer    Max.-Head-Change    Column Row Layer    Max.-Flux-Residual            L2-New               L2-Old           Solver-Max-Delh
          0                 1           2            11  126     1       0.5478080524E+01      34  103    1       0.1027538563E+07      0.1406043571E+07      0.2865921581E+03      0.5478080524E+01
          1                 1           0            11  126     1       0.3834656301E+01      11  126    1      -0.2628669576E+07      0.2632419738E+07      0.1406043571E+07      0.5478080524E+01
          0                 2           2            11  126     1      -0.9353717099E+00      11  126    1      -0.9848227086E+06      0.1037381943E+07      0.2632419738E+07     -0.9353717099E+00
          0                 3           2            62   28     1       0.8121694232E+00      11  126    1      -0.4925860823E+05      0.5907145951E+05      0.1037381943E+07      0.8121694232E+00
          0                 4           2            62   28     1       0.8047498916E+00      11  126    1      -0.2462480402E+04      0.2954087943E+04      0.5907145951E+05      0.8047498916E+00

    ------------------------------------------------
       NWT REQUIRED            4 OUTER ITERATIONS 
       AND A TOTAL OF          8 INNER ITERATIONS.
    ------------------------------------------------

 OUTPUT CONTROL FOR STRESS PERIOD    1   TIME STEP    4
    SAVE HEAD FOR ALL LAYERS
    SAVE DRAWDOWN FOR ALL LAYERS
    SAVE BUDGET
    PRINT BUDGET
 UBDSV1 SAVING "         STORAGE" ON UNIT   9 AT TIME STEP  4, STRESS PERIOD   1
 UBDSV2 SAVING "   CONSTANT HEAD" ON UNIT   9 AT TIME STEP  4, STRESS PERIOD   1
 UBDSV1 SAVING "FLOW RIGHT FACE " ON UNIT   9 AT TIME STEP  4, STRESS PERIOD   1
 UBDSV1 SAVING "FLOW FRONT FACE " ON UNIT   9 AT TIME STEP  4, STRESS PERIOD   1
 UBDSV4 SAVING "   RIVER LEAKAGE" ON UNIT   9 AT TIME STEP  4, STRESS PERIOD   1
 UBDSV3 SAVING "        RECHARGE" ON UNIT   9 AT TIME STEP  4, STRESS PERIOD   1

 HEAD WILL BE SAVED ON UNIT   37 AT END OF TIME STEP    4, STRESS PERIOD    1

 DRAWDOWN WILL BE SAVED ON UNIT   38 AT END OF TIME STEP    4, STRESS PERIOD    1
1
  VOLUMETRIC BUDGET FOR ENTIRE MODEL AT END OF TIME STEP    4, STRESS PERIOD   1
  ------------------------------------------------------------------------------

     CUMULATIVE VOLUMES      L**3       RATES FOR THIS TIME STEP      L**3/T
     ------------------                 ------------------------

           IN:                                      IN:
           ---                                      ---
             STORAGE =     3814209.5000               STORAGE =      948423.8750
       CONSTANT HEAD =           0.0000         CONSTANT HEAD =           0.0000
       RIVER LEAKAGE =    17337630.0000         RIVER LEAKAGE =     4375808.5000
            RECHARGE =         905.0384              RECHARGE =          58.0527

            TOTAL IN =    21152746.0000              TOTAL IN =     5324290.5000

          OUT:                                     OUT:
          ----                                     ----
             STORAGE =    21154364.0000               STORAGE =     5324424.5000
       CONSTANT HEAD =           0.0000         CONSTANT HEAD =           0.0000
       RIVER LEAKAGE =         325.6039         RIVER LEAKAGE =          67.2045
            RECHARGE =           0.0000              RECHARGE =           0.0000

           TOTAL OUT =    21154690.0000             TOTAL OUT =     5324491.5000

            IN - OUT =       -1944.0000              IN - OUT =        -201.0000

 PERCENT DISCREPANCY =          -0.01     PERCENT DISCREPANCY =          -0.00






         TIME SUMMARY AT END OF TIME STEP    4 IN STRESS PERIOD    1
                    SECONDS     MINUTES      HOURS       DAYS        YEARS
                    -----------------------------------------------------------
   TIME STEP LENGTH  86400.      1440.0      24.000      1.0000     2.73785E-03
 STRESS PERIOD TIME 3.45600E+05  5760.0      96.000      4.0000     1.09514E-02
         TOTAL TIME 3.45600E+05  5760.0      96.000      4.0000     1.09514E-02
1
 
 SOLVING FOR HEAD 
                                                   Max.-Head-Change                        Max.-Flux-Residual
  Residual-Control   Outer-Iter.   Inner-Iter.     Column Row Layer    Max.-Head-Change    Column Row Layer    Max.-Flux-Residual            L2-New               L2-Old           Solver-Max-Delh
          0                 1           2            41   65     1       0.3180940513E+01      34  103    1       0.1027444769E+07      0.1398282006E+07      0.1643046232E+03      0.3180940513E+01
          0                 2           2            62   28     1       0.9012425445E+00      34  103    1      -0.1027651920E+06      0.1447606205E+06      0.1398282006E+07      0.9012425445E+00
          1                 2           0            62   28     1       0.6308697704E+00      33  103    1      -0.3507507764E+06      0.3508253106E+06      0.1447606205E+06      0.9012425445E+00
          0                 3           2            62   28     1       0.8947656823E+00      33  103    1      -0.1388638768E+06      0.1470872940E+06      0.3508253106E+06      0.8947656823E+00
          0                 4           2            62   28     1       0.8855809066E+00      40   52    1      -0.1026192182E+05      0.1262527211E+05      0.1470872940E+06      0.8855809066E+00
          0                 5           2            62   28     1       0.8764920171E+00      40   52    1      -0.5131908486E+03      0.6317018562E+03      0.1262527211E+05      0.8764920171E+00
          1                 5           0            62   28     1       0.6135444015E+00      62   28    1      -0.4204410441E+05      0.4204412160E+05      0.6317018562E+03      0.8764920171E+00
          2                 5           0            62   28     1       0.4294810737E+00      62   28    1      -0.1573716335E+05      0.1573859850E+05      0.4204412160E+05      0.8764920171E+00

    ------------------------------------------------
       NWT REQUIRED            5 OUTER ITERATIONS 
       AND A TOTAL OF         10 INNER ITERATIONS.
    ------------------------------------------------

 OUTPUT CONTROL FOR STRESS PERIOD    1   TIME STEP    5
    SAVE HEAD FOR ALL LAYERS
    SAVE DRAWDOWN FOR ALL LAYERS
    SAVE BUDGET
    PRINT BUDGET
 UBDSV1 SAVING "         STORAGE" ON UNIT   9 AT TIME STEP  5, STRESS PERIOD   1
 UBDSV2 SAVING "   CONSTANT HEAD" ON UNIT   9 AT TIME STEP  5, STRESS PERIOD   1
 UBDSV1 SAVING "FLOW RIGHT FACE " ON UNIT   9 AT TIME STEP  5, STRESS PERIOD   1
 UBDSV1 SAVING "FLOW FRONT FACE " ON UNIT   9 AT TIME STEP  5, STRESS PERIOD   1
 UBDSV4 SAVING "   RIVER LEAKAGE" ON UNIT   9 AT TIME STEP  5, STRESS PERIOD   1
 UBDSV3 SAVING "        RECHARGE" ON UNIT   9 AT TIME STEP  5, STRESS PERIOD   1

 HEAD WILL BE SAVED ON UNIT   37 AT END OF TIME STEP    5, STRESS PERIOD    1

 DRAWDOWN WILL BE SAVED ON UNIT   38 AT END OF TIME STEP    5, STRESS PERIOD    1
1
  VOLUMETRIC BUDGET FOR ENTIRE MODEL AT END OF TIME STEP    5, STRESS PERIOD   1
  ------------------------------------------------------------------------------

     CUMULATIVE VOLUMES      L**3       RATES FOR THIS TIME STEP      L**3/T
     ------------------                 ------------------------

           IN:                                      IN:
           ---                                      ---
             STORAGE =     4762790.0000               STORAGE =      948580.6250
       CONSTANT HEAD =           0.0000         CONSTANT HEAD =           0.0000
       RIVER LEAKAGE =    21496214.0000         RIVER LEAKAGE =     4158583.2500
            RECHARGE =         939.9976              RECHARGE =          34.9593

            TOTAL IN =    26259944.0000              TOTAL IN =     5107199.0000

          OUT:                                     OUT:
          ----                                     ----
             STORAGE =    26262056.0000               STORAGE =     5107692.0000
       CONSTANT HEAD =           0.0000         CONSTANT HEAD =           0.0000
       RIVER LEAKAGE =         392.1284         RIVER LEAKAGE =          66.5245
            RECHARGE =           0.0000              RECHARGE =           0.0000

           TOTAL OUT =    26262448.0000             TOTAL OUT =     5107758.5000

            IN - OUT =       -2504.0000              IN - OUT =        -559.5000

 PERCENT DISCREPANCY =          -0.01     PERCENT DISCREPANCY =          -0.01






         TIME SUMMARY AT END OF TIME STEP    5 IN STRESS PERIOD    1
                    SECONDS     MINUTES      HOURS       DAYS        YEARS
                    -----------------------------------------------------------
   TIME STEP LENGTH  86400.      1440.0      24.000      1.0000     2.73785E-03
 STRESS PERIOD TIME 4.32000E+05  7200.0      120.00      5.0000     1.36893E-02
         TOTAL TIME 4.32000E+05  7200.0      120.00      5.0000     1.36893E-02
1
 
 SOLVING FOR HEAD 
                                                   Max.-Head-Change                        Max.-Flux-Residual
  Residual-Control   Outer-Iter.   Inner-Iter.     Column Row Layer    Max.-Head-Change    Column Row Layer    Max.-Flux-Residual            L2-New               L2-Old           Solver-Max-Delh
          0                 1           2            41   65     1       0.3179946902E+01      34  103    1       0.1027337750E+07      0.1383949405E+07      0.3381833477E+03      0.3179946902E+01
          0                 2           2            62   28     1      -0.8109911312E+00      34  103    1      -0.1027544819E+06      0.1631252931E+06      0.1383949405E+07     -0.8109911312E+00
          0                 3           2            60    6     1       0.2887715987E+00      34  103    1      -0.5137875982E+04      0.8386540331E+04      0.1631252931E+06      0.2887715987E+00

    ------------------------------------------------
       NWT REQUIRED            3 OUTER ITERATIONS 
       AND A TOTAL OF          6 INNER ITERATIONS.
    ------------------------------------------------

 OUTPUT CONTROL FOR STRESS PERIOD    1   TIME STEP    6
    SAVE HEAD FOR ALL LAYERS
    SAVE DRAWDOWN FOR ALL LAYERS
    SAVE BUDGET
    PRINT BUDGET
 UBDSV1 SAVING "         STORAGE" ON UNIT   9 AT TIME STEP  6, STRESS PERIOD   1
 UBDSV2 SAVING "   CONSTANT HEAD" ON UNIT   9 AT TIME STEP  6, STRESS PERIOD   1
 UBDSV1 SAVING "FLOW RIGHT FACE " ON UNIT   9 AT TIME STEP  6, STRESS PERIOD   1
 UBDSV1 SAVING "FLOW FRONT FACE " ON UNIT   9 AT TIME STEP  6, STRESS PERIOD   1
 UBDSV4 SAVING "   RIVER LEAKAGE" ON UNIT   9 AT TIME STEP  6, STRESS PERIOD   1
 UBDSV3 SAVING "        RECHARGE" ON UNIT   9 AT TIME STEP  6, STRESS PERIOD   1

 HEAD WILL BE SAVED ON UNIT   37 AT END OF TIME STEP    6, STRESS PERIOD    1

 DRAWDOWN WILL BE SAVED ON UNIT   38 AT END OF TIME STEP    6, STRESS PERIOD    1
1
  VOLUMETRIC BUDGET FOR ENTIRE MODEL AT END OF TIME STEP    6, STRESS PERIOD   1
  ------------------------------------------------------------------------------

     CUMULATIVE VOLUMES      L**3       RATES FOR THIS TIME STEP      L**3/T
     ------------------                 ------------------------

           IN:                                      IN:
           ---                                      ---
             STORAGE =     5710869.0000               STORAGE =      948079.2500
       CONSTANT HEAD =           0.0000         CONSTANT HEAD =           0.0000
       RIVER LEAKAGE =    25481216.0000         RIVER LEAKAGE =     3985002.0000
            RECHARGE =         962.1124              RECHARGE =          22.1148

            TOTAL IN =    31193048.0000              TOTAL IN =     4933103.0000

          OUT:                                     OUT:
          ----                                     ----
             STORAGE =    31196256.0000               STORAGE =     4934200.0000
       CONSTANT HEAD =           0.0000         CONSTANT HEAD =           0.0000
       RIVER LEAKAGE =         519.2698         RIVER LEAKAGE =         127.1414
            RECHARGE =           0.0000              RECHARGE =           0.0000

           TOTAL OUT =    31196776.0000             TOTAL OUT =     4934327.0000

            IN - OUT =       -3728.0000              IN - OUT =       -1224.0000

 PERCENT DISCREPANCY =          -0.01     PERCENT DISCREPANCY =          -0.02






         TIME SUMMARY AT END OF TIME STEP    6 IN STRESS PERIOD    1
                    SECONDS     MINUTES      HOURS       DAYS        YEARS
                    -----------------------------------------------------------
   TIME STEP LENGTH  86400.      1440.0      24.000      1.0000     2.73785E-03
 STRESS PERIOD TIME 5.18400E+05  8640.0      144.00      6.0000     1.64271E-02
         TOTAL TIME 5.18400E+05  8640.0      144.00      6.0000     1.64271E-02
1
 
 SOLVING FOR HEAD 
                                                   Max.-Head-Change                        Max.-Flux-Residual
  Residual-Control   Outer-Iter.   Inner-Iter.     Column Row Layer    Max.-Head-Change    Column Row Layer    Max.-Flux-Residual            L2-New               L2-Old           Solver-Max-Delh
          0                 1           2            41   65     1       0.2564570381E+01      34  103    1       0.1027217473E+07      0.1371921248E+07      0.4198669514E+03      0.2564570381E+01
          0                 2           2            60    6     1       0.2310830492E+00      34  103    1      -0.1027424470E+06      0.1372125600E+06      0.1371921248E+07      0.2310830492E+00
          0                 3           2            60    6     1       0.2310777095E+00      34  103    1      -0.5137274181E+04      0.6860820320E+04      0.1372125600E+06      0.2310777095E+00
          0                 4           2            60    6     1       0.2310723702E+00      59   40    1      -0.4223605184E+03      0.5446190331E+03      0.6860820320E+04      0.2310723702E+00

    ------------------------------------------------
       NWT REQUIRED            4 OUTER ITERATIONS 
       AND A TOTAL OF          8 INNER ITERATIONS.
    ------------------------------------------------

 OUTPUT CONTROL FOR STRESS PERIOD    1   TIME STEP    7
    SAVE HEAD FOR ALL LAYERS
    SAVE DRAWDOWN FOR ALL LAYERS
    SAVE BUDGET
    PRINT BUDGET
 UBDSV1 SAVING "         STORAGE" ON UNIT   9 AT TIME STEP  7, STRESS PERIOD   1
 UBDSV2 SAVING "   CONSTANT HEAD" ON UNIT   9 AT TIME STEP  7, STRESS PERIOD   1
 UBDSV1 SAVING "FLOW RIGHT FACE " ON UNIT   9 AT TIME STEP  7, STRESS PERIOD   1
 UBDSV1 SAVING "FLOW FRONT FACE " ON UNIT   9 AT TIME STEP  7, STRESS PERIOD   1
 UBDSV4 SAVING "   RIVER LEAKAGE" ON UNIT   9 AT TIME STEP  7, STRESS PERIOD   1
 UBDSV3 SAVING "        RECHARGE" ON UNIT   9 AT TIME STEP  7, STRESS PERIOD   1

 HEAD WILL BE SAVED ON UNIT   37 AT END OF TIME STEP    7, STRESS PERIOD    1

 DRAWDOWN WILL BE SAVED ON UNIT   38 AT END OF TIME STEP    7, STRESS PERIOD    1
1
  VOLUMETRIC BUDGET FOR ENTIRE MODEL AT END OF TIME STEP    7, STRESS PERIOD   1
  ------------------------------------------------------------------------------

     CUMULATIVE VOLUMES      L**3       RATES FOR THIS TIME STEP      L**3/T
     ------------------                 ------------------------

           IN:                                      IN:
           ---                                      ---
             STORAGE =     6658045.0000               STORAGE =      947175.7500
       CONSTANT HEAD =           0.0000         CONSTANT HEAD =           0.0000
       RIVER LEAKAGE =    29142578.0000         RIVER LEAKAGE =     3661361.5000
            RECHARGE =         976.5985              RECHARGE =          14.4861

            TOTAL IN =    35801600.0000              TOTAL IN =     4608552.0000

          OUT:                                     OUT:
          ----                                     ----
             STORAGE =    35804644.0000               STORAGE =     4608386.5000
       CONSTANT HEAD =           0.0000         CONSTANT HEAD =           0.0000
       RIVER LEAKAGE =         646.8831         RIVER LEAKAGE =         127.6133
            RECHARGE =           0.0000              RECHARGE =           0.0000

           TOTAL OUT =    35805292.0000             TOTAL OUT =     4608514.0000

            IN - OUT =       -3692.0000              IN - OUT =          38.0000

 PERCENT DISCREPANCY =          -0.01     PERCENT DISCREPANCY =           0.00






         TIME SUMMARY AT END OF TIME STEP    7 IN STRESS PERIOD    1
                    SECONDS     MINUTES      HOURS       DAYS        YEARS
                    -----------------------------------------------------------
   TIME STEP LENGTH  86400.      1440.0      24.000      1.0000     2.73785E-03
 STRESS PERIOD TIME 6.04800E+05  10080.      168.00      7.0000     1.91650E-02
         TOTAL TIME 6.04800E+05  10080.      168.00      7.0000     1.91650E-02
1
 
 SOLVING FOR HEAD 
                                                   Max.-Head-Change                        Max.-Flux-Residual
  Residual-Control   Outer-Iter.   Inner-Iter.     Column Row Layer    Max.-Head-Change    Column Row Layer    Max.-Flux-Residual            L2-New               L2-Old           Solver-Max-Delh
          0                 1           2            34  103     1       0.1129545779E+01      34  103    1       0.1027084017E+07      0.1344320073E+07      0.3643755118E+02      0.1129545779E+01
          0                 2           2            58   14     1       0.2611638672E+00      34  103    1      -0.1027290935E+06      0.1344528400E+06      0.1344320073E+07      0.2611638672E+00
          0                 3           2            58   14     1       0.2607197272E+00      34  103    1      -0.5136606447E+04      0.6722844869E+04      0.1344528400E+06      0.2607197272E+00

    ------------------------------------------------
       NWT REQUIRED            3 OUTER ITERATIONS 
       AND A TOTAL OF          6 INNER ITERATIONS.
    ------------------------------------------------

 OUTPUT CONTROL FOR STRESS PERIOD    1   TIME STEP    8
    SAVE HEAD FOR ALL LAYERS
    SAVE DRAWDOWN FOR ALL LAYERS
    SAVE BUDGET
    PRINT BUDGET
 UBDSV1 SAVING "         STORAGE" ON UNIT   9 AT TIME STEP  8, STRESS PERIOD   1
 UBDSV2 SAVING "   CONSTANT HEAD" ON UNIT   9 AT TIME STEP  8, STRESS PERIOD   1
 UBDSV1 SAVING "FLOW RIGHT FACE " ON UNIT   9 AT TIME STEP  8, STRESS PERIOD   1
 UBDSV1 SAVING "FLOW FRONT FACE " ON UNIT   9 AT TIME STEP  8, STRESS PERIOD   1
 UBDSV4 SAVING "   RIVER LEAKAGE" ON UNIT   9 AT TIME STEP  8, STRESS PERIOD   1
 UBDSV3 SAVING "        RECHARGE" ON UNIT   9 AT TIME STEP  8, STRESS PERIOD   1

 HEAD WILL BE SAVED ON UNIT   37 AT END OF TIME STEP    8, STRESS PERIOD    1

 DRAWDOWN WILL BE SAVED ON UNIT   38 AT END OF TIME STEP    8, STRESS PERIOD    1
1
  VOLUMETRIC BUDGET FOR ENTIRE MODEL AT END OF TIME STEP    8, STRESS PERIOD   1
  ------------------------------------------------------------------------------

     CUMULATIVE VOLUMES      L**3       RATES FOR THIS TIME STEP      L**3/T
     ------------------                 ------------------------

           IN:                                      IN:
           ---                                      ---
             STORAGE =     7604767.0000               STORAGE =      946722.1875
       CONSTANT HEAD =           0.0000         CONSTANT HEAD =           0.0000
       RIVER LEAKAGE =    32803358.0000         RIVER LEAKAGE =     3660780.7500
            RECHARGE =         986.3403              RECHARGE =           9.7418

            TOTAL IN =    40409112.0000              TOTAL IN =     4607512.5000

          OUT:                                     OUT:
          ----                                     ----
             STORAGE =    40413160.0000               STORAGE =     4608517.0000
       CONSTANT HEAD =           0.0000         CONSTANT HEAD =           0.0000
       RIVER LEAKAGE =         774.4956         RIVER LEAKAGE =         127.6125
            RECHARGE =           0.0000              RECHARGE =           0.0000

           TOTAL OUT =    40413936.0000             TOTAL OUT =     4608644.5000

            IN - OUT =       -4824.0000              IN - OUT =       -1132.0000

 PERCENT DISCREPANCY =          -0.01     PERCENT DISCREPANCY =          -0.02






         TIME SUMMARY AT END OF TIME STEP    8 IN STRESS PERIOD    1
                    SECONDS     MINUTES      HOURS       DAYS        YEARS
                    -----------------------------------------------------------
   TIME STEP LENGTH  86400.      1440.0      24.000      1.0000     2.73785E-03
 STRESS PERIOD TIME 6.91200E+05  11520.      192.00      8.0000     2.19028E-02
         TOTAL TIME 6.91200E+05  11520.      192.00      8.0000     2.19028E-02
1
 
 SOLVING FOR HEAD 
                                                   Max.-Head-Change                        Max.-Flux-Residual
  Residual-Control   Outer-Iter.   Inner-Iter.     Column Row Layer    Max.-Head-Change    Column Row Layer    Max.-Flux-Residual            L2-New               L2-Old           Solver-Max-Delh
          0                 1           2            34  103     1       0.1129358339E+01      34  103    1       0.1026937333E+07      0.1343853529E+07      0.4728007097E+03      0.1129358339E+01
          0                 2           2            58   14     1       0.2925763280E+00      34  103    1      -0.1027144166E+06      0.1486019449E+06      0.1343853529E+07      0.2925763280E+00
          0                 3           2            58   14     1       0.2920159266E+00      34  103    1      -0.5135872542E+04      0.7430303423E+04      0.1486019449E+06      0.2920159266E+00
          0                 4           2            58   14     1       0.2914511568E+00      43   36    1      -0.3425032497E+04      0.3445214573E+04      0.7430303423E+04      0.2914511568E+00

    ------------------------------------------------
       NWT REQUIRED            4 OUTER ITERATIONS 
       AND A TOTAL OF          8 INNER ITERATIONS.
    ------------------------------------------------

 OUTPUT CONTROL FOR STRESS PERIOD    1   TIME STEP    9
    SAVE HEAD FOR ALL LAYERS
    SAVE DRAWDOWN FOR ALL LAYERS
    SAVE BUDGET
    PRINT BUDGET
 UBDSV1 SAVING "         STORAGE" ON UNIT   9 AT TIME STEP  9, STRESS PERIOD   1
 UBDSV2 SAVING "   CONSTANT HEAD" ON UNIT   9 AT TIME STEP  9, STRESS PERIOD   1
 UBDSV1 SAVING "FLOW RIGHT FACE " ON UNIT   9 AT TIME STEP  9, STRESS PERIOD   1
 UBDSV1 SAVING "FLOW FRONT FACE " ON UNIT   9 AT TIME STEP  9, STRESS PERIOD   1
 UBDSV4 SAVING "   RIVER LEAKAGE" ON UNIT   9 AT TIME STEP  9, STRESS PERIOD   1
 UBDSV3 SAVING "        RECHARGE" ON UNIT   9 AT TIME STEP  9, STRESS PERIOD   1

 HEAD WILL BE SAVED ON UNIT   37 AT END OF TIME STEP    9, STRESS PERIOD    1

 DRAWDOWN WILL BE SAVED ON UNIT   38 AT END OF TIME STEP    9, STRESS PERIOD    1
1
  VOLUMETRIC BUDGET FOR ENTIRE MODEL AT END OF TIME STEP    9, STRESS PERIOD   1
  ------------------------------------------------------------------------------

     CUMULATIVE VOLUMES      L**3       RATES FOR THIS TIME STEP      L**3/T
     ------------------                 ------------------------

           IN:                                      IN:
           ---                                      ---
             STORAGE =     8550586.0000               STORAGE =      945819.1250
       CONSTANT HEAD =           0.0000         CONSTANT HEAD =           0.0000
       RIVER LEAKAGE =    36464136.0000         RIVER LEAKAGE =     3660779.2500
            RECHARGE =         993.0295              RECHARGE =           6.6891

            TOTAL IN =    45015712.0000              TOTAL IN =     4606605.0000

          OUT:                                     OUT:
          ----                                     ----
             STORAGE =    45019752.0000               STORAGE =     4606593.0000
       CONSTANT HEAD =           0.0000         CONSTANT HEAD =           0.0000
       RIVER LEAKAGE =         902.1066         RIVER LEAKAGE =         127.6110
            RECHARGE =           0.0000              RECHARGE =           0.0000

           TOTAL OUT =    45020656.0000             TOTAL OUT =     4606720.5000

            IN - OUT =       -4944.0000              IN - OUT =        -115.5000

 PERCENT DISCREPANCY =          -0.01     PERCENT DISCREPANCY =          -0.00






         TIME SUMMARY AT END OF TIME STEP    9 IN STRESS PERIOD    1
                    SECONDS     MINUTES      HOURS       DAYS        YEARS
                    -----------------------------------------------------------
   TIME STEP LENGTH  86400.      1440.0      24.000      1.0000     2.73785E-03
 STRESS PERIOD TIME 7.77600E+05  12960.      216.00      9.0000     2.46407E-02
         TOTAL TIME 7.77600E+05  12960.      216.00      9.0000     2.46407E-02
1
 
 SOLVING FOR HEAD 
                                                   Max.-Head-Change                        Max.-Flux-Residual
  Residual-Control   Outer-Iter.   Inner-Iter.     Column Row Layer    Max.-Head-Change    Column Row Layer    Max.-Flux-Residual            L2-New               L2-Old           Solver-Max-Delh
          0                 1           2            34  103     1       0.1129156476E+01      34  103    1       0.1026777509E+07      0.1343375827E+07      0.1743514262E+03      0.1129156476E+01
          0                 2           2            34  103     1       0.5917667128E+00      34  103    1       0.1759932616E+06      0.1961604592E+06      0.1343375827E+07      0.5917667128E+00
          0                 3           2            58   14     1       0.3222021055E+00      34  103    1      -0.1761789812E+05      0.1814214377E+05      0.1961604592E+06      0.3222021055E+00
          0                 4           2            58   14     1       0.3215098944E+00      39   51    1      -0.1060052946E+05      0.1063930721E+05      0.1814214377E+05      0.3215098944E+00
          0                 5           2            58   14     1       0.3208189345E+00      39   51    1      -0.5301276992E+03      0.5328091835E+03      0.1063930721E+05      0.3208189345E+00

    ------------------------------------------------
       NWT REQUIRED            5 OUTER ITERATIONS 
       AND A TOTAL OF         10 INNER ITERATIONS.
    ------------------------------------------------

 OUTPUT CONTROL FOR STRESS PERIOD    1   TIME STEP   10
    SAVE HEAD FOR ALL LAYERS
    SAVE DRAWDOWN FOR ALL LAYERS
    SAVE BUDGET
    PRINT BUDGET
 UBDSV1 SAVING "         STORAGE" ON UNIT   9 AT TIME STEP 10, STRESS PERIOD   1
 UBDSV2 SAVING "   CONSTANT HEAD" ON UNIT   9 AT TIME STEP 10, STRESS PERIOD   1
 UBDSV1 SAVING "FLOW RIGHT FACE " ON UNIT   9 AT TIME STEP 10, STRESS PERIOD   1
 UBDSV1 SAVING "FLOW FRONT FACE " ON UNIT   9 AT TIME STEP 10, STRESS PERIOD   1
 UBDSV4 SAVING "   RIVER LEAKAGE" ON UNIT   9 AT TIME STEP 10, STRESS PERIOD   1
 UBDSV3 SAVING "        RECHARGE" ON UNIT   9 AT TIME STEP 10, STRESS PERIOD   1

 HEAD WILL BE SAVED ON UNIT   37 AT END OF TIME STEP   10, STRESS PERIOD    1

 DRAWDOWN WILL BE SAVED ON UNIT   38 AT END OF TIME STEP   10, STRESS PERIOD    1
1
  VOLUMETRIC BUDGET FOR ENTIRE MODEL AT END OF TIME STEP   10, STRESS PERIOD   1
  ------------------------------------------------------------------------------

     CUMULATIVE VOLUMES      L**3       RATES FOR THIS TIME STEP      L**3/T
     ------------------                 ------------------------

           IN:                                      IN:
           ---                                      ---
             STORAGE =     9495706.0000               STORAGE =      945119.5625
       CONSTANT HEAD =           0.0000         CONSTANT HEAD =           0.0000
       RIVER LEAKAGE =    39862388.0000         RIVER LEAKAGE =     3398252.7500
            RECHARGE =         997.7017              RECHARGE =           4.6722

            TOTAL IN =    49359088.0000              TOTAL IN =     4343377.0000

          OUT:                                     OUT:
          ----                                     ----
             STORAGE =    49362916.0000               STORAGE =     4343162.5000
       CONSTANT HEAD =           0.0000         CONSTANT HEAD =           0.0000
       RIVER LEAKAGE =        1029.7163         RIVER LEAKAGE =         127.6096
            RECHARGE =           0.0000              RECHARGE =           0.0000

           TOTAL OUT =    49363944.0000             TOTAL OUT =     4343290.0000

            IN - OUT =       -4856.0000              IN - OUT =          87.0000

 PERCENT DISCREPANCY =          -0.01     PERCENT DISCREPANCY =           0.00






         TIME SUMMARY AT END OF TIME STEP   10 IN STRESS PERIOD    1
                    SECONDS     MINUTES      HOURS       DAYS        YEARS
                    -----------------------------------------------------------
   TIME STEP LENGTH  86400.      1440.0      24.000      1.0000     2.73785E-03
 STRESS PERIOD TIME 8.64000E+05  14400.      240.00      10.000     2.73785E-02
         TOTAL TIME 8.64000E+05  14400.      240.00      10.000     2.73785E-02
1
 
 SOLVING FOR HEAD 
                                                   Max.-Head-Change                        Max.-Flux-Residual
  Residual-Control   Outer-Iter.   Inner-Iter.     Column Row Layer    Max.-Head-Change    Column Row Layer    Max.-Flux-Residual            L2-New               L2-Old           Solver-Max-Delh
          0                 1           2            34  103     1       0.2569622025E+01      34  103    1       0.7640554560E+06      0.1154659285E+07      0.3867015463E+02      0.2569622025E+01
          0                 2           2            58   14     1       0.3517384203E+00      30  100    1      -0.8376632772E+05      0.1426567698E+06      0.1154659285E+07      0.3517384203E+00
          0                 3           2            58   14     1       0.3509139008E+00      61   56    1      -0.4666107029E+04      0.8523609468E+04      0.1426567698E+06      0.3509139008E+00

    ------------------------------------------------
       NWT REQUIRED            3 OUTER ITERATIONS 
       AND A TOTAL OF          6 INNER ITERATIONS.
    ------------------------------------------------

 OUTPUT CONTROL FOR STRESS PERIOD    1   TIME STEP   11
    SAVE HEAD FOR ALL LAYERS
    SAVE DRAWDOWN FOR ALL LAYERS
    SAVE BUDGET
    PRINT BUDGET
 UBDSV1 SAVING "         STORAGE" ON UNIT   9 AT TIME STEP 11, STRESS PERIOD   1
 UBDSV2 SAVING "   CONSTANT HEAD" ON UNIT   9 AT TIME STEP 11, STRESS PERIOD   1
 UBDSV1 SAVING "FLOW RIGHT FACE " ON UNIT   9 AT TIME STEP 11, STRESS PERIOD   1
 UBDSV1 SAVING "FLOW FRONT FACE " ON UNIT   9 AT TIME STEP 11, STRESS PERIOD   1
 UBDSV4 SAVING "   RIVER LEAKAGE" ON UNIT   9 AT TIME STEP 11, STRESS PERIOD   1
 UBDSV3 SAVING "        RECHARGE" ON UNIT   9 AT TIME STEP 11, STRESS PERIOD   1

 HEAD WILL BE SAVED ON UNIT   37 AT END OF TIME STEP   11, STRESS PERIOD    1

 DRAWDOWN WILL BE SAVED ON UNIT   38 AT END OF TIME STEP   11, STRESS PERIOD    1
1
  VOLUMETRIC BUDGET FOR ENTIRE MODEL AT END OF TIME STEP   11, STRESS PERIOD   1
  ------------------------------------------------------------------------------

     CUMULATIVE VOLUMES      L**3       RATES FOR THIS TIME STEP      L**3/T
     ------------------                 ------------------------

           IN:                                      IN:
           ---                                      ---
             STORAGE =    10440362.0000               STORAGE =      944656.1875
       CONSTANT HEAD =           0.0000         CONSTANT HEAD =           0.0000
       RIVER LEAKAGE =    42497780.0000         RIVER LEAKAGE =     2635391.5000
            RECHARGE =        1001.0125              RECHARGE =           3.3108

            TOTAL IN =    52939144.0000              TOTAL IN =     3580051.0000

          OUT:                                     OUT:
          ----                                     ----
             STORAGE =    52943048.0000               STORAGE =     3580134.0000
       CONSTANT HEAD =           0.0000         CONSTANT HEAD =           0.0000
       RIVER LEAKAGE =        2122.9136         RIVER LEAKAGE =        1093.1971
            RECHARGE =           0.0000              RECHARGE =           0.0000

           TOTAL OUT =    52945172.0000             TOTAL OUT =     3581227.2500

            IN - OUT =       -6028.0000              IN - OUT =       -1176.2500

 PERCENT DISCREPANCY =          -0.01     PERCENT DISCREPANCY =          -0.03






         TIME SUMMARY AT END OF TIME STEP   11 IN STRESS PERIOD    1
                    SECONDS     MINUTES      HOURS       DAYS        YEARS
                    -----------------------------------------------------------
   TIME STEP LENGTH  86400.      1440.0      24.000      1.0000     2.73785E-03
 STRESS PERIOD TIME 9.50400E+05  15840.      264.00      11.000     3.01164E-02
         TOTAL TIME 9.50400E+05  15840.      264.00      11.000     3.01164E-02
1
 
 SOLVING FOR HEAD 
                                                   Max.-Head-Change                        Max.-Flux-Residual
  Residual-Control   Outer-Iter.   Inner-Iter.     Column Row Layer    Max.-Head-Change    Column Row Layer    Max.-Flux-Residual            L2-New               L2-Old           Solver-Max-Delh
          0                 1           2            62   30     1       0.8825811438E+00      34  102    1       0.5423663942E+06      0.8651934797E+06      0.4271101846E+03      0.8825811438E+00
          0                 2           2            58   14     1       0.3813795528E+00      34  102    1      -0.5424390601E+05      0.8652963934E+05      0.8651934797E+06      0.3813795528E+00
          0                 3           2            58   14     1       0.3804038385E+00      38   33    1      -0.4922078487E+04      0.6553388891E+04      0.8652963934E+05      0.3804038385E+00

    ------------------------------------------------
       NWT REQUIRED            3 OUTER ITERATIONS 
       AND A TOTAL OF          6 INNER ITERATIONS.
    ------------------------------------------------

 OUTPUT CONTROL FOR STRESS PERIOD    1   TIME STEP   12
    SAVE HEAD FOR ALL LAYERS
    SAVE DRAWDOWN FOR ALL LAYERS
    SAVE BUDGET
    PRINT BUDGET
 UBDSV1 SAVING "         STORAGE" ON UNIT   9 AT TIME STEP 12, STRESS PERIOD   1
 UBDSV2 SAVING "   CONSTANT HEAD" ON UNIT   9 AT TIME STEP 12, STRESS PERIOD   1
 UBDSV1 SAVING "FLOW RIGHT FACE " ON UNIT   9 AT TIME STEP 12, STRESS PERIOD   1
 UBDSV1 SAVING "FLOW FRONT FACE " ON UNIT   9 AT TIME STEP 12, STRESS PERIOD   1
 UBDSV4 SAVING "   RIVER LEAKAGE" ON UNIT   9 AT TIME STEP 12, STRESS PERIOD   1
 UBDSV3 SAVING "        RECHARGE" ON UNIT   9 AT TIME STEP 12, STRESS PERIOD   1

 HEAD WILL BE SAVED ON UNIT   37 AT END OF TIME STEP   12, STRESS PERIOD    1

 DRAWDOWN WILL BE SAVED ON UNIT   38 AT END OF TIME STEP   12, STRESS PERIOD    1
1
  VOLUMETRIC BUDGET FOR ENTIRE MODEL AT END OF TIME STEP   12, STRESS PERIOD   1
  ------------------------------------------------------------------------------

     CUMULATIVE VOLUMES      L**3       RATES FOR THIS TIME STEP      L**3/T
     ------------------                 ------------------------

           IN:                                      IN:
           ---                                      ---
             STORAGE =    11384359.0000               STORAGE =      943996.5625
       CONSTANT HEAD =           0.0000         CONSTANT HEAD =           0.0000
       RIVER LEAKAGE =    45133172.0000         RIVER LEAKAGE =     2635391.2500
            RECHARGE =        1003.3877              RECHARGE =           2.3753

            TOTAL IN =    56518536.0000              TOTAL IN =     3579390.2500

          OUT:                                     OUT:
          ----                                     ----
             STORAGE =    56521896.0000               STORAGE =     3578846.5000
       CONSTANT HEAD =           0.0000         CONSTANT HEAD =           0.0000
       RIVER LEAKAGE =        3447.6147         RIVER LEAKAGE =        1324.7012
            RECHARGE =           0.0000              RECHARGE =           0.0000

           TOTAL OUT =    56525344.0000             TOTAL OUT =     3580171.2500

            IN - OUT =       -6808.0000              IN - OUT =        -781.0000

 PERCENT DISCREPANCY =          -0.01     PERCENT DISCREPANCY =          -0.02






         TIME SUMMARY AT END OF TIME STEP   12 IN STRESS PERIOD    1
                    SECONDS     MINUTES      HOURS       DAYS        YEARS
                    -----------------------------------------------------------
   TIME STEP LENGTH  86400.      1440.0      24.000      1.0000     2.73785E-03
 STRESS PERIOD TIME 1.03680E+06  17280.      288.00      12.000     3.28542E-02
         TOTAL TIME 1.03680E+06  17280.      288.00      12.000     3.28542E-02
1
 
 SOLVING FOR HEAD 
                                                   Max.-Head-Change                        Max.-Flux-Residual
  Residual-Control   Outer-Iter.   Inner-Iter.     Column Row Layer    Max.-Head-Change    Column Row Layer    Max.-Flux-Residual            L2-New               L2-Old           Solver-Max-Delh
          0                 1           2            62   30     1       0.8825073833E+00      34  102    1       0.5419060695E+06      0.8646063657E+06      0.3291270864E+03      0.8825073833E+00
          0                 2           2            58   14     1       0.4103875110E+00      34  102    1      -0.5419786050E+05      0.8647074526E+05      0.8646063657E+06      0.4103875110E+00
          0                 3           2            58   14     1       0.4092497252E+00      34  102    1      -0.2709945762E+04      0.4323738146E+04      0.8647074526E+05      0.4092497252E+00

    ------------------------------------------------
       NWT REQUIRED            3 OUTER ITERATIONS 
       AND A TOTAL OF          6 INNER ITERATIONS.
    ------------------------------------------------

 OUTPUT CONTROL FOR STRESS PERIOD    1   TIME STEP   13
    SAVE HEAD FOR ALL LAYERS
    SAVE DRAWDOWN FOR ALL LAYERS
    SAVE BUDGET
    PRINT BUDGET
 UBDSV1 SAVING "         STORAGE" ON UNIT   9 AT TIME STEP 13, STRESS PERIOD   1
 UBDSV2 SAVING "   CONSTANT HEAD" ON UNIT   9 AT TIME STEP 13, STRESS PERIOD   1
 UBDSV1 SAVING "FLOW RIGHT FACE " ON UNIT   9 AT TIME STEP 13, STRESS PERIOD   1
 UBDSV1 SAVING "FLOW FRONT FACE " ON UNIT   9 AT TIME STEP 13, STRESS PERIOD   1
 UBDSV4 SAVING "   RIVER LEAKAGE" ON UNIT   9 AT TIME STEP 13, STRESS PERIOD   1
 UBDSV3 SAVING "        RECHARGE" ON UNIT   9 AT TIME STEP 13, STRESS PERIOD   1

 HEAD WILL BE SAVED ON UNIT   37 AT END OF TIME STEP   13, STRESS PERIOD    1

 DRAWDOWN WILL BE SAVED ON UNIT   38 AT END OF TIME STEP   13, STRESS PERIOD    1
1
  VOLUMETRIC BUDGET FOR ENTIRE MODEL AT END OF TIME STEP   13, STRESS PERIOD   1
  ------------------------------------------------------------------------------

     CUMULATIVE VOLUMES      L**3       RATES FOR THIS TIME STEP      L**3/T
     ------------------                 ------------------------

           IN:                                      IN:
           ---                                      ---
             STORAGE =    12327696.0000               STORAGE =      943337.5000
       CONSTANT HEAD =           0.0000         CONSTANT HEAD =           0.0000
       RIVER LEAKAGE =    47768564.0000         RIVER LEAKAGE =     2635390.7500
            RECHARGE =        1005.1102              RECHARGE =           1.7225

            TOTAL IN =    60097264.0000              TOTAL IN =     3578730.0000

          OUT:                                     OUT:
          ----                                     ----
             STORAGE =    60099636.0000               STORAGE =     3577740.7500
       CONSTANT HEAD =           0.0000         CONSTANT HEAD =           0.0000
       RIVER LEAKAGE =        4963.7803         RIVER LEAKAGE =        1516.1654
            RECHARGE =           0.0000              RECHARGE =           0.0000

           TOTAL OUT =    60104600.0000             TOTAL OUT =     3579257.0000

            IN - OUT =       -7336.0000              IN - OUT =        -527.0000

 PERCENT DISCREPANCY =          -0.01     PERCENT DISCREPANCY =          -0.01






         TIME SUMMARY AT END OF TIME STEP   13 IN STRESS PERIOD    1
                    SECONDS     MINUTES      HOURS       DAYS        YEARS
                    -----------------------------------------------------------
   TIME STEP LENGTH  86400.      1440.0      24.000      1.0000     2.73785E-03
 STRESS PERIOD TIME 1.12320E+06  18720.      312.00      13.000     3.55921E-02
         TOTAL TIME 1.12320E+06  18720.      312.00      13.000     3.55921E-02
1
 
 SOLVING FOR HEAD 
                                                   Max.-Head-Change                        Max.-Flux-Residual
  Residual-Control   Outer-Iter.   Inner-Iter.     Column Row Layer    Max.-Head-Change    Column Row Layer    Max.-Flux-Residual            L2-New               L2-Old           Solver-Max-Delh
          0                 1           2            62   30     1       0.8824335023E+00      34  102    1       0.5414400425E+06      0.8640103780E+06      0.2186729615E+03      0.8824335023E+00
          0                 2           2            58   14     1       0.4387124098E+00      34  102    1      -0.5415124418E+05      0.8641137356E+05      0.8640103780E+06      0.4387124098E+00
          0                 3           2            58   14     1       0.4374022471E+00      34  102    1      -0.2707614845E+04      0.4321249897E+04      0.8641137356E+05      0.4374022471E+00

    ------------------------------------------------
       NWT REQUIRED            3 OUTER ITERATIONS 
       AND A TOTAL OF          6 INNER ITERATIONS.
    ------------------------------------------------

 OUTPUT CONTROL FOR STRESS PERIOD    1   TIME STEP   14
    SAVE HEAD FOR ALL LAYERS
    SAVE DRAWDOWN FOR ALL LAYERS
    SAVE BUDGET
    PRINT BUDGET
 UBDSV1 SAVING "         STORAGE" ON UNIT   9 AT TIME STEP 14, STRESS PERIOD   1
 UBDSV2 SAVING "   CONSTANT HEAD" ON UNIT   9 AT TIME STEP 14, STRESS PERIOD   1
 UBDSV1 SAVING "FLOW RIGHT FACE " ON UNIT   9 AT TIME STEP 14, STRESS PERIOD   1
 UBDSV1 SAVING "FLOW FRONT FACE " ON UNIT   9 AT TIME STEP 14, STRESS PERIOD   1
 UBDSV4 SAVING "   RIVER LEAKAGE" ON UNIT   9 AT TIME STEP 14, STRESS PERIOD   1
 UBDSV3 SAVING "        RECHARGE" ON UNIT   9 AT TIME STEP 14, STRESS PERIOD   1

 HEAD WILL BE SAVED ON UNIT   37 AT END OF TIME STEP   14, STRESS PERIOD    1

 DRAWDOWN WILL BE SAVED ON UNIT   38 AT END OF TIME STEP   14, STRESS PERIOD    1
1
  VOLUMETRIC BUDGET FOR ENTIRE MODEL AT END OF TIME STEP   14, STRESS PERIOD   1
  ------------------------------------------------------------------------------

     CUMULATIVE VOLUMES      L**3       RATES FOR THIS TIME STEP      L**3/T
     ------------------                 ------------------------

           IN:                                      IN:
           ---                                      ---
             STORAGE =    13270375.0000               STORAGE =      942679.1250
       CONSTANT HEAD =           0.0000         CONSTANT HEAD =           0.0000
       RIVER LEAKAGE =    50403956.0000         RIVER LEAKAGE =     2635390.5000
            RECHARGE =        1006.3713              RECHARGE =           1.2611

            TOTAL IN =    63675340.0000              TOTAL IN =     3578071.0000

          OUT:                                     OUT:
          ----                                     ----
             STORAGE =    63676516.0000               STORAGE =     3576879.0000
       CONSTANT HEAD =           0.0000         CONSTANT HEAD =           0.0000
       RIVER LEAKAGE =        6674.1514         RIVER LEAKAGE =        1710.3713
            RECHARGE =           0.0000              RECHARGE =           0.0000

           TOTAL OUT =    63683192.0000             TOTAL OUT =     3578589.2500

            IN - OUT =       -7852.0000              IN - OUT =        -518.2500

 PERCENT DISCREPANCY =          -0.01     PERCENT DISCREPANCY =          -0.01






         TIME SUMMARY AT END OF TIME STEP   14 IN STRESS PERIOD    1
                    SECONDS     MINUTES      HOURS       DAYS        YEARS
                    -----------------------------------------------------------
   TIME STEP LENGTH  86400.      1440.0      24.000      1.0000     2.73785E-03
 STRESS PERIOD TIME 1.20960E+06  20160.      336.00      14.000     3.83299E-02
         TOTAL TIME 1.20960E+06  20160.      336.00      14.000     3.83299E-02
1
 
 SOLVING FOR HEAD 
                                                   Max.-Head-Change                        Max.-Flux-Residual
  Residual-Control   Outer-Iter.   Inner-Iter.     Column Row Layer    Max.-Head-Change    Column Row Layer    Max.-Flux-Residual            L2-New               L2-Old           Solver-Max-Delh
          0                 1           2            62   30     1       0.8823601132E+00      34  102    1       0.5409683075E+06      0.8634084119E+06      0.2188614184E+03      0.8823601132E+00
          0                 2           2            58   14     1       0.4663065406E+00      34  102    1      -0.5410405692E+05      0.8635883839E+05      0.8634084119E+06      0.4663065406E+00
          0                 3           2            58   14     1       0.4648143020E+00      34  102    1      -0.2705255380E+04      0.4318176694E+04      0.8635883839E+05      0.4648143020E+00

    ------------------------------------------------
       NWT REQUIRED            3 OUTER ITERATIONS 
       AND A TOTAL OF          6 INNER ITERATIONS.
    ------------------------------------------------

 OUTPUT CONTROL FOR STRESS PERIOD    1   TIME STEP   15
    SAVE HEAD FOR ALL LAYERS
    SAVE DRAWDOWN FOR ALL LAYERS
    SAVE BUDGET
    PRINT BUDGET
 UBDSV1 SAVING "         STORAGE" ON UNIT   9 AT TIME STEP 15, STRESS PERIOD   1
 UBDSV2 SAVING "   CONSTANT HEAD" ON UNIT   9 AT TIME STEP 15, STRESS PERIOD   1
 UBDSV1 SAVING "FLOW RIGHT FACE " ON UNIT   9 AT TIME STEP 15, STRESS PERIOD   1
 UBDSV1 SAVING "FLOW FRONT FACE " ON UNIT   9 AT TIME STEP 15, STRESS PERIOD   1
 UBDSV4 SAVING "   RIVER LEAKAGE" ON UNIT   9 AT TIME STEP 15, STRESS PERIOD   1
 UBDSV3 SAVING "        RECHARGE" ON UNIT   9 AT TIME STEP 15, STRESS PERIOD   1

 HEAD WILL BE SAVED ON UNIT   37 AT END OF TIME STEP   15, STRESS PERIOD    1

 DRAWDOWN WILL BE SAVED ON UNIT   38 AT END OF TIME STEP   15, STRESS PERIOD    1
1
  VOLUMETRIC BUDGET FOR ENTIRE MODEL AT END OF TIME STEP   15, STRESS PERIOD   1
  ------------------------------------------------------------------------------

     CUMULATIVE VOLUMES      L**3       RATES FOR THIS TIME STEP      L**3/T
     ------------------                 ------------------------

           IN:                                      IN:
           ---                                      ---
             STORAGE =    14212396.0000               STORAGE =      942021.3750
       CONSTANT HEAD =           0.0000         CONSTANT HEAD =           0.0000
       RIVER LEAKAGE =    53039344.0000         RIVER LEAKAGE =     2635390.0000
            RECHARGE =        1007.3024              RECHARGE =           0.9311

            TOTAL IN =    67252752.0000              TOTAL IN =     3577412.5000

          OUT:                                     OUT:
          ----                                     ----
             STORAGE =    67252528.0000               STORAGE =     3576015.7500
       CONSTANT HEAD =           0.0000         CONSTANT HEAD =           0.0000
       RIVER LEAKAGE =        8581.4863         RIVER LEAKAGE =        1907.3350
            RECHARGE =           0.0000              RECHARGE =           0.0000

           TOTAL OUT =    67261112.0000             TOTAL OUT =     3577923.0000

            IN - OUT =       -8360.0000              IN - OUT =        -510.5000

 PERCENT DISCREPANCY =          -0.01     PERCENT DISCREPANCY =          -0.01






         TIME SUMMARY AT END OF TIME STEP   15 IN STRESS PERIOD    1
                    SECONDS     MINUTES      HOURS       DAYS        YEARS
                    -----------------------------------------------------------
   TIME STEP LENGTH  86400.      1440.0      24.000      1.0000     2.73785E-03
 STRESS PERIOD TIME 1.29600E+06  21600.      360.00      15.000     4.10678E-02
         TOTAL TIME 1.29600E+06  21600.      360.00      15.000     4.10678E-02
1
 
 SOLVING FOR HEAD 
                                                   Max.-Head-Change                        Max.-Flux-Residual
  Residual-Control   Outer-Iter.   Inner-Iter.     Column Row Layer    Max.-Head-Change    Column Row Layer    Max.-Flux-Residual            L2-New               L2-Old           Solver-Max-Delh
          0                 1           2            62   30     1       0.8822866210E+00      34  102    1       0.5404909002E+06      0.8627933476E+06      0.2190218681E+03      0.8822866210E+00
          0                 2           2            58   14     1       0.4931244833E+00      34  102    1      -0.5405630227E+05      0.8631666718E+05      0.8627933476E+06      0.4931244833E+00
          0                 3           2            58   14     1       0.4914411093E+00      34  102    1      -0.2702867546E+04      0.4316084022E+04      0.8631666718E+05      0.4914411093E+00
          1                 3           0            58   14     1       0.3440087707E+00      29  102    1      -0.7622111507E+05      0.7622142911E+05      0.4316084022E+04      0.4914411093E+00
          2                 3           0            58   14     1       0.2408061354E+00      29  102    1      -0.6959619464E+04      0.7108284969E+04      0.7622142911E+05      0.4914411093E+00
          0                 4           2            58   14     1       0.4906147588E+00      34  102    1      -0.1444669500E+04      0.2307160256E+04      0.7108284969E+04      0.4906147588E+00
          1                 4           0            58   14     1       0.3434303253E+00      29  102    1      -0.1880811867E+06      0.1880812284E+06      0.2307160256E+04      0.4906147588E+00
          2                 4           0            58   14     1       0.2404012236E+00      29  102    1      -0.1191996164E+06      0.1192021281E+06      0.1880812284E+06      0.4906147588E+00
          3                 4           0            58   14     1       0.1682808537E+00      29  102    1      -0.7098262877E+05      0.7099334553E+05      0.1192021281E+06      0.4906147588E+00
          4                 4           0            58   14     1       0.1177965956E+00      29  102    1      -0.3723079227E+05      0.3726327249E+05      0.7099334553E+05      0.4906147588E+00
                                                   Max.-Head-Change                        Max.-Flux-Residual
  Residual-Control   Outer-Iter.   Inner-Iter.     Column Row Layer    Max.-Head-Change    Column Row Layer    Max.-Flux-Residual            L2-New               L2-Old           Solver-Max-Delh
          5                 4           0            58   14     1       0.8245761550E-01      29  102    1      -0.1360453370E+05      0.1372060912E+05      0.3726327249E+05      0.4906147588E+00
          0                 5           2            58   14     1       0.4903317711E+00      34  102    1      -0.1213999336E+04      0.1938890660E+04      0.1372060912E+05      0.4903317711E+00
          1                 5           0            58   14     1       0.3432322339E+00      29  102    1      -0.2262386179E+06      0.2262386453E+06      0.1938890660E+04      0.4903317711E+00
          2                 5           0            58   14     1       0.2402625597E+00      29  102    1      -0.1574866633E+06      0.1574880085E+06      0.2262386453E+06      0.4903317711E+00
          3                 5           0            58   14     1       0.1681837889E+00      29  102    1      -0.1093604062E+06      0.1093653213E+06      0.1574880085E+06      0.4903317711E+00
          4                 5           0            58   14     1       0.1177286502E+00      29  102    1      -0.7567208090E+05      0.7568337279E+05      0.1093653213E+06      0.4903317711E+00
          5                 5           0            58   14     1       0.8241005375E-01      29  102    1      -0.5209028005E+05      0.5211177847E+05      0.7568337279E+05      0.4903317711E+00
          6                 5           0            58   14     1       0.5768703665E-01      29  102    1      -0.3558303271E+05      0.3562031608E+05      0.5211177847E+05      0.4903317711E+00
          7                 5           0            58   14     1       0.4038092496E-01      29  102    1      -0.2402796614E+05      0.2408960300E+05      0.3562031608E+05      0.4903317711E+00
          8                 5           0            58   14     1       0.2826664699E-01      29  102    1      -0.1593942278E+05      0.1603929744E+05      0.2408960300E+05      0.4903317711E+00
                                                   Max.-Head-Change                        Max.-Flux-Residual
  Residual-Control   Outer-Iter.   Inner-Iter.     Column Row Layer    Max.-Head-Change    Column Row Layer    Max.-Flux-Residual            L2-New               L2-Old           Solver-Max-Delh
          9                 5           0            58   14     1       0.1978665256E-01      29  102    1      -0.1027744406E+05      0.1043955859E+05      0.1603929744E+05      0.4903317711E+00
         10                 5           0            58   14     1       0.1385065656E-01      29  102    1      -0.6314059772E+04      0.6583586202E+04      0.1043955859E+05      0.4903317711E+00
         11                 5           0            58   14     1       0.9695459423E-02      29  102    1      -0.3539691183E+04      0.4011145535E+04      0.6583586202E+04      0.4903317711E+00
         12                 5           0            58   14     1       0.6786821481E-02      29  102    1      -0.1597633383E+04      0.2484236690E+04      0.4011145535E+04      0.4903317711E+00
          0                 6           2            58   14     1       0.4903084790E+00      34  102    1      -0.1198035687E+04      0.1928059306E+04      0.2484236690E+04      0.4903084790E+00

    ------------------------------------------------
       NWT REQUIRED            6 OUTER ITERATIONS 
       AND A TOTAL OF         12 INNER ITERATIONS.
    ------------------------------------------------

 OUTPUT CONTROL FOR STRESS PERIOD    1   TIME STEP   16
    SAVE HEAD FOR ALL LAYERS
    SAVE DRAWDOWN FOR ALL LAYERS
    SAVE BUDGET
    PRINT BUDGET
 UBDSV1 SAVING "         STORAGE" ON UNIT   9 AT TIME STEP 16, STRESS PERIOD   1
 UBDSV2 SAVING "   CONSTANT HEAD" ON UNIT   9 AT TIME STEP 16, STRESS PERIOD   1
 UBDSV1 SAVING "FLOW RIGHT FACE " ON UNIT   9 AT TIME STEP 16, STRESS PERIOD   1
 UBDSV1 SAVING "FLOW FRONT FACE " ON UNIT   9 AT TIME STEP 16, STRESS PERIOD   1
 UBDSV4 SAVING "   RIVER LEAKAGE" ON UNIT   9 AT TIME STEP 16, STRESS PERIOD   1
 UBDSV3 SAVING "        RECHARGE" ON UNIT   9 AT TIME STEP 16, STRESS PERIOD   1

 HEAD WILL BE SAVED ON UNIT   37 AT END OF TIME STEP   16, STRESS PERIOD    1

 DRAWDOWN WILL BE SAVED ON UNIT   38 AT END OF TIME STEP   16, STRESS PERIOD    1
1
  VOLUMETRIC BUDGET FOR ENTIRE MODEL AT END OF TIME STEP   16, STRESS PERIOD   1
  ------------------------------------------------------------------------------

     CUMULATIVE VOLUMES      L**3       RATES FOR THIS TIME STEP      L**3/T
     ------------------                 ------------------------

           IN:                                      IN:
           ---                                      ---
             STORAGE =    15153629.0000               STORAGE =      941233.2500
       CONSTANT HEAD =           0.0000         CONSTANT HEAD =           0.0000
       RIVER LEAKAGE =    55674732.0000         RIVER LEAKAGE =     2635389.7500
            RECHARGE =        1007.9951              RECHARGE =           0.6926

            TOTAL IN =    70829368.0000              TOTAL IN =     3576623.7500

          OUT:                                     OUT:
          ----                                     ----
             STORAGE =    70827216.0000               STORAGE =     3574692.0000
       CONSTANT HEAD =           0.0000         CONSTANT HEAD =           0.0000
       RIVER LEAKAGE =       10688.4951         RIVER LEAKAGE =        2107.0090
            RECHARGE =           0.0000              RECHARGE =           0.0000

           TOTAL OUT =    70837904.0000             TOTAL OUT =     3576799.0000

            IN - OUT =       -8536.0000              IN - OUT =        -175.2500

 PERCENT DISCREPANCY =          -0.01     PERCENT DISCREPANCY =          -0.00






         TIME SUMMARY AT END OF TIME STEP   16 IN STRESS PERIOD    1
                    SECONDS     MINUTES      HOURS       DAYS        YEARS
                    -----------------------------------------------------------
   TIME STEP LENGTH  86400.      1440.0      24.000      1.0000     2.73785E-03
 STRESS PERIOD TIME 1.38240E+06  23040.      384.00      16.000     4.38056E-02
         TOTAL TIME 1.38240E+06  23040.      384.00      16.000     4.38056E-02
1
 
 SOLVING FOR HEAD 
                                                   Max.-Head-Change                        Max.-Flux-Residual
  Residual-Control   Outer-Iter.   Inner-Iter.     Column Row Layer    Max.-Head-Change    Column Row Layer    Max.-Flux-Residual            L2-New               L2-Old           Solver-Max-Delh
          0                 1           2            62   30     1       0.8822134962E+00      34  102    1       0.5400079216E+06      0.8621715084E+06      0.1019551627E+03      0.8822134962E+00
          0                 2           2            57   59     1       0.7078569564E+00      34  102    1      -0.5400799035E+05      0.8681811930E+05      0.8621715084E+06      0.7078569564E+00
          0                 3           2            58   14     1       0.5160624282E+00      61   57    1      -0.4427655618E+04      0.6424131999E+04      0.8681811930E+05      0.5160624282E+00

    ------------------------------------------------
       NWT REQUIRED            3 OUTER ITERATIONS 
       AND A TOTAL OF          6 INNER ITERATIONS.
    ------------------------------------------------

 OUTPUT CONTROL FOR STRESS PERIOD    1   TIME STEP   17
    SAVE HEAD FOR ALL LAYERS
    SAVE DRAWDOWN FOR ALL LAYERS
    SAVE BUDGET
    PRINT BUDGET
 UBDSV1 SAVING "         STORAGE" ON UNIT   9 AT TIME STEP 17, STRESS PERIOD   1
 UBDSV2 SAVING "   CONSTANT HEAD" ON UNIT   9 AT TIME STEP 17, STRESS PERIOD   1
 UBDSV1 SAVING "FLOW RIGHT FACE " ON UNIT   9 AT TIME STEP 17, STRESS PERIOD   1
 UBDSV1 SAVING "FLOW FRONT FACE " ON UNIT   9 AT TIME STEP 17, STRESS PERIOD   1
 UBDSV4 SAVING "   RIVER LEAKAGE" ON UNIT   9 AT TIME STEP 17, STRESS PERIOD   1
 UBDSV3 SAVING "        RECHARGE" ON UNIT   9 AT TIME STEP 17, STRESS PERIOD   1

 HEAD WILL BE SAVED ON UNIT   37 AT END OF TIME STEP   17, STRESS PERIOD    1

 DRAWDOWN WILL BE SAVED ON UNIT   38 AT END OF TIME STEP   17, STRESS PERIOD    1
1
  VOLUMETRIC BUDGET FOR ENTIRE MODEL AT END OF TIME STEP   17, STRESS PERIOD   1
  ------------------------------------------------------------------------------

     CUMULATIVE VOLUMES      L**3       RATES FOR THIS TIME STEP      L**3/T
     ------------------                 ------------------------

           IN:                                      IN:
           ---                                      ---
             STORAGE =    16094337.0000               STORAGE =      940707.8125
       CONSTANT HEAD =           0.0000         CONSTANT HEAD =           0.0000
       RIVER LEAKAGE =    58299464.0000         RIVER LEAKAGE =     2624734.0000
            RECHARGE =        1008.5138              RECHARGE =           0.5187

            TOTAL IN =    74394808.0000              TOTAL IN =     3565442.2500

          OUT:                                     OUT:
          ----                                     ----
             STORAGE =    74391240.0000               STORAGE =     3564022.5000
       CONSTANT HEAD =           0.0000         CONSTANT HEAD =           0.0000
       RIVER LEAKAGE =       12997.9258         RIVER LEAKAGE =        2309.4307
            RECHARGE =           0.0000              RECHARGE =           0.0000

           TOTAL OUT =    74404240.0000             TOTAL OUT =     3566332.0000

            IN - OUT =       -9432.0000              IN - OUT =        -889.7500

 PERCENT DISCREPANCY =          -0.01     PERCENT DISCREPANCY =          -0.02






         TIME SUMMARY AT END OF TIME STEP   17 IN STRESS PERIOD    1
                    SECONDS     MINUTES      HOURS       DAYS        YEARS
                    -----------------------------------------------------------
   TIME STEP LENGTH  86400.      1440.0      24.000      1.0000     2.73785E-03
 STRESS PERIOD TIME 1.46880E+06  24480.      408.00      17.000     4.65435E-02
         TOTAL TIME 1.46880E+06  24480.      408.00      17.000     4.65435E-02
1
 
 SOLVING FOR HEAD 
                                                   Max.-Head-Change                        Max.-Flux-Residual
  Residual-Control   Outer-Iter.   Inner-Iter.     Column Row Layer    Max.-Head-Change    Column Row Layer    Max.-Flux-Residual            L2-New               L2-Old           Solver-Max-Delh
          0                 1           2            62   30     1       0.8821393908E+00      34  102    1       0.5395192445E+06      0.8613592479E+06      0.3229987510E+03      0.8821393908E+00
          0                 2           2            58   14     1       0.5430247668E+00      34  102    1      -0.5395910842E+05      0.8596992290E+05      0.8613592479E+06      0.5430247668E+00
          0                 3           2            58   14     1       0.5409394803E+00      34  102    1      -0.2698007644E+04      0.4328507295E+04      0.8596992290E+05      0.5409394803E+00

    ------------------------------------------------
       NWT REQUIRED            3 OUTER ITERATIONS 
       AND A TOTAL OF          6 INNER ITERATIONS.
    ------------------------------------------------

 OUTPUT CONTROL FOR STRESS PERIOD    1   TIME STEP   18
    SAVE HEAD FOR ALL LAYERS
    SAVE DRAWDOWN FOR ALL LAYERS
    SAVE BUDGET
    PRINT BUDGET
 UBDSV1 SAVING "         STORAGE" ON UNIT   9 AT TIME STEP 18, STRESS PERIOD   1
 UBDSV2 SAVING "   CONSTANT HEAD" ON UNIT   9 AT TIME STEP 18, STRESS PERIOD   1
 UBDSV1 SAVING "FLOW RIGHT FACE " ON UNIT   9 AT TIME STEP 18, STRESS PERIOD   1
 UBDSV1 SAVING "FLOW FRONT FACE " ON UNIT   9 AT TIME STEP 18, STRESS PERIOD   1
 UBDSV4 SAVING "   RIVER LEAKAGE" ON UNIT   9 AT TIME STEP 18, STRESS PERIOD   1
 UBDSV3 SAVING "        RECHARGE" ON UNIT   9 AT TIME STEP 18, STRESS PERIOD   1

 HEAD WILL BE SAVED ON UNIT   37 AT END OF TIME STEP   18, STRESS PERIOD    1

 DRAWDOWN WILL BE SAVED ON UNIT   38 AT END OF TIME STEP   18, STRESS PERIOD    1
1
  VOLUMETRIC BUDGET FOR ENTIRE MODEL AT END OF TIME STEP   18, STRESS PERIOD   1
  ------------------------------------------------------------------------------

     CUMULATIVE VOLUMES      L**3       RATES FOR THIS TIME STEP      L**3/T
     ------------------                 ------------------------

           IN:                                      IN:
           ---                                      ---
             STORAGE =    17034388.0000               STORAGE =      940052.0000
       CONSTANT HEAD =           0.0000         CONSTANT HEAD =           0.0000
       RIVER LEAKAGE =    60905292.0000         RIVER LEAKAGE =     2605828.5000
            RECHARGE =        1008.9046              RECHARGE =           0.3908

            TOTAL IN =    77940688.0000              TOTAL IN =     3545881.0000

          OUT:                                     OUT:
          ----                                     ----
             STORAGE =    77935128.0000               STORAGE =     3543887.7500
       CONSTANT HEAD =           0.0000         CONSTANT HEAD =           0.0000
       RIVER LEAKAGE =       15512.4961         RIVER LEAKAGE =        2514.5706
            RECHARGE =           0.0000              RECHARGE =           0.0000

           TOTAL OUT =    77950640.0000             TOTAL OUT =     3546402.2500

            IN - OUT =       -9952.0000              IN - OUT =        -521.2500

 PERCENT DISCREPANCY =          -0.01     PERCENT DISCREPANCY =          -0.01






         TIME SUMMARY AT END OF TIME STEP   18 IN STRESS PERIOD    1
                    SECONDS     MINUTES      HOURS       DAYS        YEARS
                    -----------------------------------------------------------
   TIME STEP LENGTH  86400.      1440.0      24.000      1.0000     2.73785E-03
 STRESS PERIOD TIME 1.55520E+06  25920.      432.00      18.000     4.92813E-02
         TOTAL TIME 1.55520E+06  25920.      432.00      18.000     4.92813E-02
1
 
 SOLVING FOR HEAD 
                                                   Max.-Head-Change                        Max.-Flux-Residual
  Residual-Control   Outer-Iter.   Inner-Iter.     Column Row Layer    Max.-Head-Change    Column Row Layer    Max.-Flux-Residual            L2-New               L2-Old           Solver-Max-Delh
          0                 1           2            62   30     1       0.1614376003E+01      34  102    1       0.5390249694E+06      0.8598381854E+06      0.2193104338E+03      0.1614376003E+01
          0                 2           2            58   14     1       0.5672132418E+00      34  102    1       0.6268481639E+05      0.9175063397E+05      0.8598381854E+06      0.5672132418E+00
          0                 3           2            58   14     1       0.5649142415E+00      34  102    1      -0.6267999996E+04      0.7105917370E+04      0.9175063397E+05      0.5649142415E+00
          1                 3           0            58   14     1       0.3954399623E+00      58   14    1      -0.4324288327E+05      0.4324435844E+05      0.7105917370E+04      0.5649142415E+00
          2                 3           0            58   14     1       0.2768079689E+00      58   14    1      -0.2629189521E+05      0.2639946223E+05      0.4324435844E+05      0.5649142415E+00
          3                 3           0            58   14     1       0.1937655749E+00      58   14    1      -0.1442654589E+05      0.1491817004E+05      0.2639946223E+05      0.5649142415E+00
          0                 4           2            35   43     1       0.2353122279E+00      58   14    1      -0.6120969162E+04      0.7772734206E+04      0.1491817004E+05      0.2353122279E+00

    ------------------------------------------------
       NWT REQUIRED            4 OUTER ITERATIONS 
       AND A TOTAL OF          8 INNER ITERATIONS.
    ------------------------------------------------

 OUTPUT CONTROL FOR STRESS PERIOD    1   TIME STEP   19
    SAVE HEAD FOR ALL LAYERS
    SAVE DRAWDOWN FOR ALL LAYERS
    SAVE BUDGET
    PRINT BUDGET
 UBDSV1 SAVING "         STORAGE" ON UNIT   9 AT TIME STEP 19, STRESS PERIOD   1
 UBDSV2 SAVING "   CONSTANT HEAD" ON UNIT   9 AT TIME STEP 19, STRESS PERIOD   1
 UBDSV1 SAVING "FLOW RIGHT FACE " ON UNIT   9 AT TIME STEP 19, STRESS PERIOD   1
 UBDSV1 SAVING "FLOW FRONT FACE " ON UNIT   9 AT TIME STEP 19, STRESS PERIOD   1
 UBDSV4 SAVING "   RIVER LEAKAGE" ON UNIT   9 AT TIME STEP 19, STRESS PERIOD   1
 UBDSV3 SAVING "        RECHARGE" ON UNIT   9 AT TIME STEP 19, STRESS PERIOD   1

 HEAD WILL BE SAVED ON UNIT   37 AT END OF TIME STEP   19, STRESS PERIOD    1

 DRAWDOWN WILL BE SAVED ON UNIT   38 AT END OF TIME STEP   19, STRESS PERIOD    1
1
  VOLUMETRIC BUDGET FOR ENTIRE MODEL AT END OF TIME STEP   19, STRESS PERIOD   1
  ------------------------------------------------------------------------------

     CUMULATIVE VOLUMES      L**3       RATES FOR THIS TIME STEP      L**3/T
     ------------------                 ------------------------

           IN:                                      IN:
           ---                                      ---
             STORAGE =    17973700.0000               STORAGE =      939312.6875
       CONSTANT HEAD =           0.0000         CONSTANT HEAD =           0.0000
       RIVER LEAKAGE =    63374176.0000         RIVER LEAKAGE =     2468884.0000
            RECHARGE =        1009.2007              RECHARGE =           0.2961

            TOTAL IN =    81348880.0000              TOTAL IN =     3408197.0000

          OUT:                                     OUT:
          ----                                     ----
             STORAGE =    81341280.0000               STORAGE =     3406150.2500
       CONSTANT HEAD =           0.0000         CONSTANT HEAD =           0.0000
       RIVER LEAKAGE =       18279.7734         RIVER LEAKAGE =        2767.2771
            RECHARGE =           0.0000              RECHARGE =           0.0000

           TOTAL OUT =    81359560.0000             TOTAL OUT =     3408917.5000

            IN - OUT =      -10680.0000              IN - OUT =        -720.5000

 PERCENT DISCREPANCY =          -0.01     PERCENT DISCREPANCY =          -0.02






         TIME SUMMARY AT END OF TIME STEP   19 IN STRESS PERIOD    1
                    SECONDS     MINUTES      HOURS       DAYS        YEARS
                    -----------------------------------------------------------
   TIME STEP LENGTH  86400.      1440.0      24.000      1.0000     2.73785E-03
 STRESS PERIOD TIME 1.64160E+06  27360.      456.00      19.000     5.20192E-02
         TOTAL TIME 1.64160E+06  27360.      456.00      19.000     5.20192E-02
1
 
 SOLVING FOR HEAD 
                                                   Max.-Head-Change                        Max.-Flux-Residual
  Residual-Control   Outer-Iter.   Inner-Iter.     Column Row Layer    Max.-Head-Change    Column Row Layer    Max.-Flux-Residual            L2-New               L2-Old           Solver-Max-Delh
          0                 1           2            34  102     1       0.2967235709E+01      34  101    1       0.4829861216E+06      0.8162334157E+06      0.3903679601E+03      0.2967235709E+01
          0                 2           2            46   56     1       0.1714756215E+01      34  101    1      -0.4830420843E+05      0.8729820338E+05      0.8162334157E+06      0.1714756215E+01
          0                 3           2            35   43     1       0.2461935416E+00      41   54    1      -0.8646970553E+04      0.1005689943E+05      0.8729820338E+05      0.2461935416E+00
          1                 3           0            35   43     1       0.1723354762E+00      41   89    1      -0.2093703024E+05      0.2115721637E+05      0.1005689943E+05      0.2461935416E+00
          2                 3           0            35   43     1       0.1206348313E+00      41   89    1      -0.1404227982E+05      0.1453365246E+05      0.2115721637E+05      0.2461935416E+00
          0                 4           2            35   43     1       0.2459039805E+00      41   89    1      -0.9215956019E+04      0.1069116250E+05      0.1453365246E+05      0.2459039805E+00
          0                 5           2            35   43     1       0.2453136968E+00      42   34    1      -0.1067379954E+04      0.1194353824E+04      0.1069116250E+05      0.2453136968E+00

    ------------------------------------------------
       NWT REQUIRED            5 OUTER ITERATIONS 
       AND A TOTAL OF         10 INNER ITERATIONS.
    ------------------------------------------------

 OUTPUT CONTROL FOR STRESS PERIOD    1   TIME STEP   20
    SAVE HEAD FOR ALL LAYERS
    SAVE DRAWDOWN FOR ALL LAYERS
    SAVE BUDGET
    PRINT BUDGET
 UBDSV1 SAVING "         STORAGE" ON UNIT   9 AT TIME STEP 20, STRESS PERIOD   1
 UBDSV2 SAVING "   CONSTANT HEAD" ON UNIT   9 AT TIME STEP 20, STRESS PERIOD   1
 UBDSV1 SAVING "FLOW RIGHT FACE " ON UNIT   9 AT TIME STEP 20, STRESS PERIOD   1
 UBDSV1 SAVING "FLOW FRONT FACE " ON UNIT   9 AT TIME STEP 20, STRESS PERIOD   1
 UBDSV4 SAVING "   RIVER LEAKAGE" ON UNIT   9 AT TIME STEP 20, STRESS PERIOD   1
 UBDSV3 SAVING "        RECHARGE" ON UNIT   9 AT TIME STEP 20, STRESS PERIOD   1

 HEAD WILL BE SAVED ON UNIT   37 AT END OF TIME STEP   20, STRESS PERIOD    1

 DRAWDOWN WILL BE SAVED ON UNIT   38 AT END OF TIME STEP   20, STRESS PERIOD    1
1
  VOLUMETRIC BUDGET FOR ENTIRE MODEL AT END OF TIME STEP   20, STRESS PERIOD   1
  ------------------------------------------------------------------------------

     CUMULATIVE VOLUMES      L**3       RATES FOR THIS TIME STEP      L**3/T
     ------------------                 ------------------------

           IN:                                      IN:
           ---                                      ---
             STORAGE =    18912166.0000               STORAGE =      938466.4375
       CONSTANT HEAD =           0.0000         CONSTANT HEAD =           0.0000
       RIVER LEAKAGE =    65334420.0000         RIVER LEAKAGE =     1960245.1250
            RECHARGE =        1009.4261              RECHARGE =           0.2254

            TOTAL IN =    84247592.0000              TOTAL IN =     2898711.7500

          OUT:                                     OUT:
          ----                                     ----
             STORAGE =    84237016.0000               STORAGE =     2895736.5000
       CONSTANT HEAD =           0.0000         CONSTANT HEAD =           0.0000
       RIVER LEAKAGE =       21228.3867         RIVER LEAKAGE =        2948.6128
            RECHARGE =           0.0000              RECHARGE =           0.0000

           TOTAL OUT =    84258248.0000             TOTAL OUT =     2898685.0000

            IN - OUT =      -10656.0000              IN - OUT =          26.7500

 PERCENT DISCREPANCY =          -0.01     PERCENT DISCREPANCY =           0.00






         TIME SUMMARY AT END OF TIME STEP   20 IN STRESS PERIOD    1
                    SECONDS     MINUTES      HOURS       DAYS        YEARS
                    -----------------------------------------------------------
   TIME STEP LENGTH  86400.      1440.0      24.000      1.0000     2.73785E-03
 STRESS PERIOD TIME 1.72800E+06  28800.      480.00      20.000     5.47570E-02
         TOTAL TIME 1.72800E+06  28800.      480.00      20.000     5.47570E-02
1
 
 SOLVING FOR HEAD 
                                                   Max.-Head-Change                        Max.-Flux-Residual
  Residual-Control   Outer-Iter.   Inner-Iter.     Column Row Layer    Max.-Head-Change    Column Row Layer    Max.-Flux-Residual            L2-New               L2-Old           Solver-Max-Delh
          0                 1           2            40   51     1       0.7683206333E+00      34  101    1       0.4826918621E+06      0.6640918237E+06      0.7371751187E+02      0.7683206333E+00
          0                 2           2            35   43     1       0.2565762972E+00      30  105    1      -0.8805249658E+05      0.1102918630E+06      0.6640918237E+06      0.2565762972E+00
          0                 3           2            35   43     1       0.2559323841E+00      30  105    1      -0.4402727659E+04      0.5514836797E+04      0.1102918630E+06      0.2559323841E+00

    ------------------------------------------------
       NWT REQUIRED            3 OUTER ITERATIONS 
       AND A TOTAL OF          6 INNER ITERATIONS.
    ------------------------------------------------

 OUTPUT CONTROL FOR STRESS PERIOD    1   TIME STEP   21
    SAVE HEAD FOR ALL LAYERS
    SAVE DRAWDOWN FOR ALL LAYERS
    SAVE BUDGET
    PRINT BUDGET
 UBDSV1 SAVING "         STORAGE" ON UNIT   9 AT TIME STEP 21, STRESS PERIOD   1
 UBDSV2 SAVING "   CONSTANT HEAD" ON UNIT   9 AT TIME STEP 21, STRESS PERIOD   1
 UBDSV1 SAVING "FLOW RIGHT FACE " ON UNIT   9 AT TIME STEP 21, STRESS PERIOD   1
 UBDSV1 SAVING "FLOW FRONT FACE " ON UNIT   9 AT TIME STEP 21, STRESS PERIOD   1
 UBDSV4 SAVING "   RIVER LEAKAGE" ON UNIT   9 AT TIME STEP 21, STRESS PERIOD   1
 UBDSV3 SAVING "        RECHARGE" ON UNIT   9 AT TIME STEP 21, STRESS PERIOD   1

 HEAD WILL BE SAVED ON UNIT   37 AT END OF TIME STEP   21, STRESS PERIOD    1

 DRAWDOWN WILL BE SAVED ON UNIT   38 AT END OF TIME STEP   21, STRESS PERIOD    1
1
  VOLUMETRIC BUDGET FOR ENTIRE MODEL AT END OF TIME STEP   21, STRESS PERIOD   1
  ------------------------------------------------------------------------------

     CUMULATIVE VOLUMES      L**3       RATES FOR THIS TIME STEP      L**3/T
     ------------------                 ------------------------

           IN:                                      IN:
           ---                                      ---
             STORAGE =    19850218.0000               STORAGE =      938052.0625
       CONSTANT HEAD =           0.0000         CONSTANT HEAD =           0.0000
       RIVER LEAKAGE =    67289120.0000         RIVER LEAKAGE =     1954697.8750
            RECHARGE =        1009.5984              RECHARGE =           0.1723

            TOTAL IN =    87140344.0000              TOTAL IN =     2892750.0000

          OUT:                                     OUT:
          ----                                     ----
             STORAGE =    87127384.0000               STORAGE =     2890368.5000
       CONSTANT HEAD =           0.0000         CONSTANT HEAD =           0.0000
       RIVER LEAKAGE =       24177.3789         RIVER LEAKAGE =        2948.9912
            RECHARGE =           0.0000              RECHARGE =           0.0000

           TOTAL OUT =    87151560.0000             TOTAL OUT =     2893317.5000

            IN - OUT =      -11216.0000              IN - OUT =        -567.5000

 PERCENT DISCREPANCY =          -0.01     PERCENT DISCREPANCY =          -0.02






         TIME SUMMARY AT END OF TIME STEP   21 IN STRESS PERIOD    1
                    SECONDS     MINUTES      HOURS       DAYS        YEARS
                    -----------------------------------------------------------
   TIME STEP LENGTH  86400.      1440.0      24.000      1.0000     2.73785E-03
 STRESS PERIOD TIME 1.81440E+06  30240.      504.00      21.000     5.74949E-02
         TOTAL TIME 1.81440E+06  30240.      504.00      21.000     5.74949E-02
1
 
 SOLVING FOR HEAD 
                                                   Max.-Head-Change                        Max.-Flux-Residual
  Residual-Control   Outer-Iter.   Inner-Iter.     Column Row Layer    Max.-Head-Change    Column Row Layer    Max.-Flux-Residual            L2-New               L2-Old           Solver-Max-Delh
          0                 1           2            40   51     1       0.7682526706E+00      34  101    1       0.4822141676E+06      0.6636057619E+06      0.2783164116E+03      0.7682526706E+00
          0                 2           2            34  101     1       0.2129208901E+01      34  101    1       0.3033435067E+06      0.3067556965E+06      0.6636057619E+06      0.2129208901E+01
          0                 3           2            35   43     1       0.2663055515E+00      34  101    1      -0.3033435525E+05      0.3042001381E+05      0.3067556965E+06      0.2663055515E+00
          1                 3           0            35   43     1       0.1864138829E+00      39   82    1      -0.4078804025E+05      0.4081641088E+05      0.3042001381E+05      0.2663055515E+00
          0                 4           2            35   43     1       0.2658135505E+00      34  101    1      -0.1016200881E+05      0.1019076406E+05      0.4081641088E+05      0.2658135505E+00
          0                 5           2            35   43     1       0.2651119309E+00      36   81    1      -0.2336998516E+04      0.2392107599E+04      0.1019076406E+05      0.2651119309E+00
          1                 5           0            35   43     1       0.1855783485E+00      37   80    1      -0.1501881224E+06      0.1501881874E+06      0.2392107599E+04      0.2651119309E+00
          2                 5           0            35   43     1       0.1299048417E+00      37   80    1      -0.9621149833E+05      0.9621484871E+05      0.1501881874E+06      0.2651119309E+00
          3                 5           0            35   43     1       0.9093338767E-01      37   80    1      -0.5842794753E+05      0.5844194573E+05      0.9621484871E+05      0.2651119309E+00
          4                 5           0            35   43     1       0.6365337028E-01      37   80    1      -0.3197950426E+05      0.3202014736E+05      0.5844194573E+05      0.2651119309E+00
                                                   Max.-Head-Change                        Max.-Flux-Residual
  Residual-Control   Outer-Iter.   Inner-Iter.     Column Row Layer    Max.-Head-Change    Column Row Layer    Max.-Flux-Residual            L2-New               L2-Old           Solver-Max-Delh
          5                 5           0            35   43     1       0.4455735844E-01      37   80    1      -0.1346561479E+05      0.1359163277E+05      0.3202014736E+05      0.2651119309E+00
          0                 6           2            35   43     1       0.2649943174E+00      36   81    1      -0.1963858168E+04      0.2072863208E+04      0.1359163277E+05      0.2649943174E+00

    ------------------------------------------------
       NWT REQUIRED            6 OUTER ITERATIONS 
       AND A TOTAL OF         12 INNER ITERATIONS.
    ------------------------------------------------

 OUTPUT CONTROL FOR STRESS PERIOD    1   TIME STEP   22
    SAVE HEAD FOR ALL LAYERS
    SAVE DRAWDOWN FOR ALL LAYERS
    SAVE BUDGET
    PRINT BUDGET
 UBDSV1 SAVING "         STORAGE" ON UNIT   9 AT TIME STEP 22, STRESS PERIOD   1
 UBDSV2 SAVING "   CONSTANT HEAD" ON UNIT   9 AT TIME STEP 22, STRESS PERIOD   1
 UBDSV1 SAVING "FLOW RIGHT FACE " ON UNIT   9 AT TIME STEP 22, STRESS PERIOD   1
 UBDSV1 SAVING "FLOW FRONT FACE " ON UNIT   9 AT TIME STEP 22, STRESS PERIOD   1
 UBDSV4 SAVING "   RIVER LEAKAGE" ON UNIT   9 AT TIME STEP 22, STRESS PERIOD   1
 UBDSV3 SAVING "        RECHARGE" ON UNIT   9 AT TIME STEP 22, STRESS PERIOD   1

 HEAD WILL BE SAVED ON UNIT   37 AT END OF TIME STEP   22, STRESS PERIOD    1

 DRAWDOWN WILL BE SAVED ON UNIT   38 AT END OF TIME STEP   22, STRESS PERIOD    1
1
  VOLUMETRIC BUDGET FOR ENTIRE MODEL AT END OF TIME STEP   22, STRESS PERIOD   1
  ------------------------------------------------------------------------------

     CUMULATIVE VOLUMES      L**3       RATES FOR THIS TIME STEP      L**3/T
     ------------------                 ------------------------

           IN:                                      IN:
           ---                                      ---
             STORAGE =    20787364.0000               STORAGE =      937145.3125
       CONSTANT HEAD =           0.0000         CONSTANT HEAD =           0.0000
       RIVER LEAKAGE =    68894320.0000         RIVER LEAKAGE =     1605196.6250
            RECHARGE =        1009.7308              RECHARGE =           0.1323

            TOTAL IN =    89682688.0000              TOTAL IN =     2542342.0000

          OUT:                                     OUT:
          ----                                     ----
             STORAGE =    89666824.0000               STORAGE =     2539443.0000
       CONSTANT HEAD =           0.0000         CONSTANT HEAD =           0.0000
       RIVER LEAKAGE =       27130.8750         RIVER LEAKAGE =        2953.4951
            RECHARGE =           0.0000              RECHARGE =           0.0000

           TOTAL OUT =    89693952.0000             TOTAL OUT =     2542396.5000

            IN - OUT =      -11264.0000              IN - OUT =         -54.5000

 PERCENT DISCREPANCY =          -0.01     PERCENT DISCREPANCY =          -0.00






         TIME SUMMARY AT END OF TIME STEP   22 IN STRESS PERIOD    1
                    SECONDS     MINUTES      HOURS       DAYS        YEARS
                    -----------------------------------------------------------
   TIME STEP LENGTH  86400.      1440.0      24.000      1.0000     2.73785E-03
 STRESS PERIOD TIME 1.90080E+06  31680.      528.00      22.000     6.02327E-02
         TOTAL TIME 1.90080E+06  31680.      528.00      22.000     6.02327E-02
1
 
 SOLVING FOR HEAD 
                                                   Max.-Head-Change                        Max.-Flux-Residual
  Residual-Control   Outer-Iter.   Inner-Iter.     Column Row Layer    Max.-Head-Change    Column Row Layer    Max.-Flux-Residual            L2-New               L2-Old           Solver-Max-Delh
          0                 1           2            34  101     1       0.9287845617E+00      34   89    1       0.3423627240E+06      0.4745441410E+06      0.1083556495E+03      0.9287845617E+00
          0                 2           2            35   43     1       0.2758390494E+00      34   89    1      -0.3423907694E+05      0.4745795272E+05      0.4745441410E+06      0.2758390494E+00
          0                 3           2            35   43     1       0.2750808968E+00      39   81    1      -0.1174831296E+05      0.1198559130E+05      0.4745795272E+05      0.2750808968E+00
          0                 4           2            35   43     1       0.2743220630E+00      39   81    1      -0.5874178412E+03      0.5998943965E+03      0.1198559130E+05      0.2743220630E+00
          1                 4           0            35   43     1       0.1920254408E+00      54   27    1      -0.2509113716E+04      0.2509567071E+04      0.5998943965E+03      0.2743220630E+00

    ------------------------------------------------
       NWT REQUIRED            4 OUTER ITERATIONS 
       AND A TOTAL OF          8 INNER ITERATIONS.
    ------------------------------------------------

 OUTPUT CONTROL FOR STRESS PERIOD    1   TIME STEP   23
    SAVE HEAD FOR ALL LAYERS
    SAVE DRAWDOWN FOR ALL LAYERS
    SAVE BUDGET
    PRINT BUDGET
 UBDSV1 SAVING "         STORAGE" ON UNIT   9 AT TIME STEP 23, STRESS PERIOD   1
 UBDSV2 SAVING "   CONSTANT HEAD" ON UNIT   9 AT TIME STEP 23, STRESS PERIOD   1
 UBDSV1 SAVING "FLOW RIGHT FACE " ON UNIT   9 AT TIME STEP 23, STRESS PERIOD   1
 UBDSV1 SAVING "FLOW FRONT FACE " ON UNIT   9 AT TIME STEP 23, STRESS PERIOD   1
 UBDSV4 SAVING "   RIVER LEAKAGE" ON UNIT   9 AT TIME STEP 23, STRESS PERIOD   1
 UBDSV3 SAVING "        RECHARGE" ON UNIT   9 AT TIME STEP 23, STRESS PERIOD   1

 HEAD WILL BE SAVED ON UNIT   37 AT END OF TIME STEP   23, STRESS PERIOD    1

 DRAWDOWN WILL BE SAVED ON UNIT   38 AT END OF TIME STEP   23, STRESS PERIOD    1
1
  VOLUMETRIC BUDGET FOR ENTIRE MODEL AT END OF TIME STEP   23, STRESS PERIOD   1
  ------------------------------------------------------------------------------

     CUMULATIVE VOLUMES      L**3       RATES FOR THIS TIME STEP      L**3/T
     ------------------                 ------------------------

           IN:                                      IN:
           ---                                      ---
             STORAGE =    21723938.0000               STORAGE =      936573.1875
       CONSTANT HEAD =           0.0000         CONSTANT HEAD =           0.0000
       RIVER LEAKAGE =    70367408.0000         RIVER LEAKAGE =     1473087.2500
            RECHARGE =        1009.8327              RECHARGE =           0.1019

            TOTAL IN =    92092352.0000              TOTAL IN =     2409660.5000

          OUT:                                     OUT:
          ----                                     ----
             STORAGE =    92073768.0000               STORAGE =     2406945.5000
       CONSTANT HEAD =           0.0000         CONSTANT HEAD =           0.0000
       RIVER LEAKAGE =       30084.8262         RIVER LEAKAGE =        2953.9504
            RECHARGE =           0.0000              RECHARGE =           0.0000

           TOTAL OUT =    92103856.0000             TOTAL OUT =     2409899.5000

            IN - OUT =      -11504.0000              IN - OUT =        -239.0000

 PERCENT DISCREPANCY =          -0.01     PERCENT DISCREPANCY =          -0.01






         TIME SUMMARY AT END OF TIME STEP   23 IN STRESS PERIOD    1
                    SECONDS     MINUTES      HOURS       DAYS        YEARS
                    -----------------------------------------------------------
   TIME STEP LENGTH  86400.      1440.0      24.000      1.0000     2.73785E-03
 STRESS PERIOD TIME 1.98720E+06  33120.      552.00      23.000     6.29706E-02
         TOTAL TIME 1.98720E+06  33120.      552.00      23.000     6.29706E-02
1
 
 SOLVING FOR HEAD 
                                                   Max.-Head-Change                        Max.-Flux-Residual
  Residual-Control   Outer-Iter.   Inner-Iter.     Column Row Layer    Max.-Head-Change    Column Row Layer    Max.-Flux-Residual            L2-New               L2-Old           Solver-Max-Delh
          0                 1           2            40   51     1       0.7681157626E+00      34   89    1       0.3422217840E+06      0.4555422996E+06      0.2025814114E+03      0.7681157626E+00
          0                 2           2            35   43     1       0.2851729621E+00      34   89    1      -0.3422498039E+05      0.4680161964E+05      0.4555422996E+06      0.2851729621E+00
          0                 3           2            35   43     1       0.2843551143E+00      34   89    1      -0.1711269051E+04      0.2340297579E+04      0.4680161964E+05      0.2843551143E+00

    ------------------------------------------------
       NWT REQUIRED            3 OUTER ITERATIONS 
       AND A TOTAL OF          6 INNER ITERATIONS.
    ------------------------------------------------

 OUTPUT CONTROL FOR STRESS PERIOD    1   TIME STEP   24
    SAVE HEAD FOR ALL LAYERS
    SAVE DRAWDOWN FOR ALL LAYERS
    SAVE BUDGET
    PRINT BUDGET
 UBDSV1 SAVING "         STORAGE" ON UNIT   9 AT TIME STEP 24, STRESS PERIOD   1
 UBDSV2 SAVING "   CONSTANT HEAD" ON UNIT   9 AT TIME STEP 24, STRESS PERIOD   1
 UBDSV1 SAVING "FLOW RIGHT FACE " ON UNIT   9 AT TIME STEP 24, STRESS PERIOD   1
 UBDSV1 SAVING "FLOW FRONT FACE " ON UNIT   9 AT TIME STEP 24, STRESS PERIOD   1
 UBDSV4 SAVING "   RIVER LEAKAGE" ON UNIT   9 AT TIME STEP 24, STRESS PERIOD   1
 UBDSV3 SAVING "        RECHARGE" ON UNIT   9 AT TIME STEP 24, STRESS PERIOD   1

 HEAD WILL BE SAVED ON UNIT   37 AT END OF TIME STEP   24, STRESS PERIOD    1

 DRAWDOWN WILL BE SAVED ON UNIT   38 AT END OF TIME STEP   24, STRESS PERIOD    1
1
  VOLUMETRIC BUDGET FOR ENTIRE MODEL AT END OF TIME STEP   24, STRESS PERIOD   1
  ------------------------------------------------------------------------------

     CUMULATIVE VOLUMES      L**3       RATES FOR THIS TIME STEP      L**3/T
     ------------------                 ------------------------

           IN:                                      IN:
           ---                                      ---
             STORAGE =    22660034.0000               STORAGE =      936096.3750
       CONSTANT HEAD =           0.0000         CONSTANT HEAD =           0.0000
       RIVER LEAKAGE =    71840400.0000         RIVER LEAKAGE =     1472993.1250
            RECHARGE =        1009.9115              RECHARGE =       7.8805E-02

            TOTAL IN =    94501440.0000              TOTAL IN =     2409089.5000

          OUT:                                     OUT:
          ----                                     ----
             STORAGE =    94480208.0000               STORAGE =     2406436.2500
       CONSTANT HEAD =           0.0000         CONSTANT HEAD =           0.0000
       RIVER LEAKAGE =       33038.3672         RIVER LEAKAGE =        2953.5422
            RECHARGE =           0.0000              RECHARGE =           0.0000

           TOTAL OUT =    94513248.0000             TOTAL OUT =     2409389.7500

            IN - OUT =      -11808.0000              IN - OUT =        -300.2500

 PERCENT DISCREPANCY =          -0.01     PERCENT DISCREPANCY =          -0.01






         TIME SUMMARY AT END OF TIME STEP   24 IN STRESS PERIOD    1
                    SECONDS     MINUTES      HOURS       DAYS        YEARS
                    -----------------------------------------------------------
   TIME STEP LENGTH  86400.      1440.0      24.000      1.0000     2.73785E-03
 STRESS PERIOD TIME 2.07360E+06  34560.      576.00      24.000     6.57084E-02
         TOTAL TIME 2.07360E+06  34560.      576.00      24.000     6.57084E-02
1
 
 SOLVING FOR HEAD 
                                                   Max.-Head-Change                        Max.-Flux-Residual
  Residual-Control   Outer-Iter.   Inner-Iter.     Column Row Layer    Max.-Head-Change    Column Row Layer    Max.-Flux-Residual            L2-New               L2-Old           Solver-Max-Delh
          0                 1           2            40   51     1       0.7680471337E+00      34   89    1       0.3420785983E+06      0.4553587862E+06      0.1202642914E+03      0.7680471337E+00
          0                 2           2            35   43     1       0.2947740803E+00      34   89    1      -0.3421065924E+05      0.4657926328E+05      0.4553587862E+06      0.2947740803E+00
          0                 3           2            35   43     1       0.2938935057E+00      34   89    1      -0.1710552974E+04      0.2329182908E+04      0.4657926328E+05      0.2938935057E+00
          1                 3           0            35   43     1       0.2057254505E+00      35   43    1      -0.9041514331E+04      0.9042308552E+04      0.2329182908E+04      0.2938935057E+00
          0                 4           2            32   73     1       0.2403528564E+00      34   89    1      -0.5730232869E+03      0.8121592808E+03      0.9042308552E+04      0.2403528564E+00
          1                 4           0            32   73     1       0.1682469966E+00      32   73    1      -0.1037020774E+06      0.1038917627E+06      0.8121592808E+03      0.2403528564E+00
          2                 4           0            32   73     1       0.1177728956E+00      32   73    1      -0.3159478184E+05      0.3170623348E+05      0.1038917627E+06      0.2403528564E+00

    ------------------------------------------------
       NWT REQUIRED            4 OUTER ITERATIONS 
       AND A TOTAL OF          8 INNER ITERATIONS.
    ------------------------------------------------

 OUTPUT CONTROL FOR STRESS PERIOD    1   TIME STEP   25
    SAVE HEAD FOR ALL LAYERS
    SAVE DRAWDOWN FOR ALL LAYERS
    SAVE BUDGET
    PRINT BUDGET
 UBDSV1 SAVING "         STORAGE" ON UNIT   9 AT TIME STEP 25, STRESS PERIOD   1
 UBDSV2 SAVING "   CONSTANT HEAD" ON UNIT   9 AT TIME STEP 25, STRESS PERIOD   1
 UBDSV1 SAVING "FLOW RIGHT FACE " ON UNIT   9 AT TIME STEP 25, STRESS PERIOD   1
 UBDSV1 SAVING "FLOW FRONT FACE " ON UNIT   9 AT TIME STEP 25, STRESS PERIOD   1
 UBDSV4 SAVING "   RIVER LEAKAGE" ON UNIT   9 AT TIME STEP 25, STRESS PERIOD   1
 UBDSV3 SAVING "        RECHARGE" ON UNIT   9 AT TIME STEP 25, STRESS PERIOD   1

 HEAD WILL BE SAVED ON UNIT   37 AT END OF TIME STEP   25, STRESS PERIOD    1

 DRAWDOWN WILL BE SAVED ON UNIT   38 AT END OF TIME STEP   25, STRESS PERIOD    1
1
  VOLUMETRIC BUDGET FOR ENTIRE MODEL AT END OF TIME STEP   25, STRESS PERIOD   1
  ------------------------------------------------------------------------------

     CUMULATIVE VOLUMES      L**3       RATES FOR THIS TIME STEP      L**3/T
     ------------------                 ------------------------

           IN:                                      IN:
           ---                                      ---
             STORAGE =    23596102.0000               STORAGE =      936068.0000
       CONSTANT HEAD =           0.0000         CONSTANT HEAD =           0.0000
       RIVER LEAKAGE =    73313392.0000         RIVER LEAKAGE =     1472992.6250
            RECHARGE =        1009.9726              RECHARGE =       6.1095E-02

            TOTAL IN =    96910504.0000              TOTAL IN =     2409060.5000

          OUT:                                     OUT:
          ----                                     ----
             STORAGE =    96887848.0000               STORAGE =     2407639.0000
       CONSTANT HEAD =           0.0000         CONSTANT HEAD =           0.0000
       RIVER LEAKAGE =       35991.5000         RIVER LEAKAGE =        2953.1343
            RECHARGE =           0.0000              RECHARGE =           0.0000

           TOTAL OUT =    96923840.0000             TOTAL OUT =     2410592.2500

            IN - OUT =      -13336.0000              IN - OUT =       -1531.7500

 PERCENT DISCREPANCY =          -0.01     PERCENT DISCREPANCY =          -0.06






         TIME SUMMARY AT END OF TIME STEP   25 IN STRESS PERIOD    1
                    SECONDS     MINUTES      HOURS       DAYS        YEARS
                    -----------------------------------------------------------
   TIME STEP LENGTH  86400.      1440.0      24.000      1.0000     2.73785E-03
 STRESS PERIOD TIME 2.16000E+06  36000.      600.00      25.000     6.84463E-02
         TOTAL TIME 2.16000E+06  36000.      600.00      25.000     6.84463E-02
1
 
 SOLVING FOR HEAD 
                                                   Max.-Head-Change                        Max.-Flux-Residual
  Residual-Control   Outer-Iter.   Inner-Iter.     Column Row Layer    Max.-Head-Change    Column Row Layer    Max.-Flux-Residual            L2-New               L2-Old           Solver-Max-Delh
          0                 1           2            40   51     1       0.7679779849E+00      34   89    1       0.3419331257E+06      0.4551734226E+06      0.4459054397E+03      0.7679779849E+00
          0                 2           2            32   73     1      -0.2185554329E+00      32   73    1      -0.2300618099E+06      0.2345220660E+06      0.4551734226E+06     -0.2185554329E+00
          0                 3           2            36   37     1       0.1858842335E+00      39   79    1      -0.5491378532E+05      0.5615190751E+05      0.2345220660E+06      0.1858842335E+00
          0                 4           2            36   37     1      -0.1750534886E+00      36   37    1      -0.1842823910E+05      0.1864090024E+05      0.5615190751E+05     -0.1750534886E+00
          0                 5           2            36   83     1       0.1404794717E+00      40   53    1      -0.2900809963E+04      0.3047058842E+04      0.1864090024E+05      0.1404794717E+00

    ------------------------------------------------
       NWT REQUIRED            5 OUTER ITERATIONS 
       AND A TOTAL OF         10 INNER ITERATIONS.
    ------------------------------------------------

 OUTPUT CONTROL FOR STRESS PERIOD    1   TIME STEP   26
    SAVE HEAD FOR ALL LAYERS
    SAVE DRAWDOWN FOR ALL LAYERS
    SAVE BUDGET
    PRINT BUDGET
 UBDSV1 SAVING "         STORAGE" ON UNIT   9 AT TIME STEP 26, STRESS PERIOD   1
 UBDSV2 SAVING "   CONSTANT HEAD" ON UNIT   9 AT TIME STEP 26, STRESS PERIOD   1
 UBDSV1 SAVING "FLOW RIGHT FACE " ON UNIT   9 AT TIME STEP 26, STRESS PERIOD   1
 UBDSV1 SAVING "FLOW FRONT FACE " ON UNIT   9 AT TIME STEP 26, STRESS PERIOD   1
 UBDSV4 SAVING "   RIVER LEAKAGE" ON UNIT   9 AT TIME STEP 26, STRESS PERIOD   1
 UBDSV3 SAVING "        RECHARGE" ON UNIT   9 AT TIME STEP 26, STRESS PERIOD   1

 HEAD WILL BE SAVED ON UNIT   37 AT END OF TIME STEP   26, STRESS PERIOD    1

 DRAWDOWN WILL BE SAVED ON UNIT   38 AT END OF TIME STEP   26, STRESS PERIOD    1
1
  VOLUMETRIC BUDGET FOR ENTIRE MODEL AT END OF TIME STEP   26, STRESS PERIOD   1
  ------------------------------------------------------------------------------

     CUMULATIVE VOLUMES      L**3       RATES FOR THIS TIME STEP      L**3/T
     ------------------                 ------------------------

           IN:                                      IN:
           ---                                      ---
             STORAGE =    24530702.0000               STORAGE =      934599.8125
       CONSTANT HEAD =           0.0000         CONSTANT HEAD =           0.0000
       RIVER LEAKAGE =    74786384.0000         RIVER LEAKAGE =     1472992.1250
            RECHARGE =        1010.0201              RECHARGE =       4.7492E-02

            TOTAL IN =    99318096.0000              TOTAL IN =     2407592.0000

          OUT:                                     OUT:
          ----                                     ----
             STORAGE =    99292648.0000               STORAGE =     2404797.7500
       CONSTANT HEAD =           0.0000         CONSTANT HEAD =           0.0000
       RIVER LEAKAGE =       38944.2266         RIVER LEAKAGE =        2952.7273
            RECHARGE =           0.0000              RECHARGE =           0.0000

           TOTAL OUT =    99331592.0000             TOTAL OUT =     2407750.5000

            IN - OUT =      -13496.0000              IN - OUT =        -158.5000

 PERCENT DISCREPANCY =          -0.01     PERCENT DISCREPANCY =          -0.01






         TIME SUMMARY AT END OF TIME STEP   26 IN STRESS PERIOD    1
                    SECONDS     MINUTES      HOURS       DAYS        YEARS
                    -----------------------------------------------------------
   TIME STEP LENGTH  86400.      1440.0      24.000      1.0000     2.73785E-03
 STRESS PERIOD TIME 2.24640E+06  37440.      624.00      26.000     7.11841E-02
         TOTAL TIME 2.24640E+06  37440.      624.00      26.000     7.11841E-02
1
 
 SOLVING FOR HEAD 
                                                   Max.-Head-Change                        Max.-Flux-Residual
  Residual-Control   Outer-Iter.   Inner-Iter.     Column Row Layer    Max.-Head-Change    Column Row Layer    Max.-Flux-Residual            L2-New               L2-Old           Solver-Max-Delh
          0                 1           2            40   51     1       0.7679085967E+00      34   89    1       0.3417855705E+06      0.4549864766E+06      0.1547392272E+03      0.7679085967E+00
          0                 2           2            36   83     1       0.1448871212E+00      34   89    1      -0.3418135116E+05      0.4506785189E+05      0.4549864766E+06      0.1448871212E+00
          0                 3           2            36   83     1       0.1444121990E+00      34   89    1      -0.1709087531E+04      0.2269476885E+04      0.4506785189E+05      0.1444121990E+00

    ------------------------------------------------
       NWT REQUIRED            3 OUTER ITERATIONS 
       AND A TOTAL OF          6 INNER ITERATIONS.
    ------------------------------------------------

 OUTPUT CONTROL FOR STRESS PERIOD    1   TIME STEP   27
    SAVE HEAD FOR ALL LAYERS
    SAVE DRAWDOWN FOR ALL LAYERS
    SAVE BUDGET
    PRINT BUDGET
 UBDSV1 SAVING "         STORAGE" ON UNIT   9 AT TIME STEP 27, STRESS PERIOD   1
 UBDSV2 SAVING "   CONSTANT HEAD" ON UNIT   9 AT TIME STEP 27, STRESS PERIOD   1
 UBDSV1 SAVING "FLOW RIGHT FACE " ON UNIT   9 AT TIME STEP 27, STRESS PERIOD   1
 UBDSV1 SAVING "FLOW FRONT FACE " ON UNIT   9 AT TIME STEP 27, STRESS PERIOD   1
 UBDSV4 SAVING "   RIVER LEAKAGE" ON UNIT   9 AT TIME STEP 27, STRESS PERIOD   1
 UBDSV3 SAVING "        RECHARGE" ON UNIT   9 AT TIME STEP 27, STRESS PERIOD   1

 HEAD WILL BE SAVED ON UNIT   37 AT END OF TIME STEP   27, STRESS PERIOD    1

 DRAWDOWN WILL BE SAVED ON UNIT   38 AT END OF TIME STEP   27, STRESS PERIOD    1
1
  VOLUMETRIC BUDGET FOR ENTIRE MODEL AT END OF TIME STEP   27, STRESS PERIOD   1
  ------------------------------------------------------------------------------

     CUMULATIVE VOLUMES      L**3       RATES FOR THIS TIME STEP      L**3/T
     ------------------                 ------------------------

           IN:                                      IN:
           ---                                      ---
             STORAGE =    25464904.0000               STORAGE =      934202.4375
       CONSTANT HEAD =           0.0000         CONSTANT HEAD =           0.0000
       RIVER LEAKAGE =    76256192.0000         RIVER LEAKAGE =     1469805.1250
            RECHARGE =        1010.0571              RECHARGE =       3.7006E-02

            TOTAL IN =   101722104.0000              TOTAL IN =     2404007.5000

          OUT:                                     OUT:
          ----                                     ----
             STORAGE =   101694008.0000               STORAGE =     2401357.5000
       CONSTANT HEAD =           0.0000         CONSTANT HEAD =           0.0000
       RIVER LEAKAGE =       41896.5469         RIVER LEAKAGE =        2952.3208
            RECHARGE =           0.0000              RECHARGE =           0.0000

           TOTAL OUT =   101735904.0000             TOTAL OUT =     2404309.7500

            IN - OUT =      -13800.0000              IN - OUT =        -302.2500

 PERCENT DISCREPANCY =          -0.01     PERCENT DISCREPANCY =          -0.01






         TIME SUMMARY AT END OF TIME STEP   27 IN STRESS PERIOD    1
                    SECONDS     MINUTES      HOURS       DAYS        YEARS
                    -----------------------------------------------------------
   TIME STEP LENGTH  86400.      1440.0      24.000      1.0000     2.73785E-03
 STRESS PERIOD TIME 2.33280E+06  38880.      648.00      27.000     7.39220E-02
         TOTAL TIME 2.33280E+06  38880.      648.00      27.000     7.39220E-02
1
 
 SOLVING FOR HEAD 
                                                   Max.-Head-Change                        Max.-Flux-Residual
  Residual-Control   Outer-Iter.   Inner-Iter.     Column Row Layer    Max.-Head-Change    Column Row Layer    Max.-Flux-Residual            L2-New               L2-Old           Solver-Max-Delh
          0                 1           2            40   51     1       0.1531420566E+01      34   89    1       0.3416357631E+06      0.4543186472E+06      0.1147809099E+03      0.1531420566E+01
          0                 2           2            34   89     1       0.3483842009E+02      34   89    1       0.2304160576E+05      0.3778736999E+05      0.4543186472E+06      0.3483842009E+02
          1                 2           0            34   89     1       0.2438689365E+02      34   89    1      -0.4247939109E+07      0.4247940766E+07      0.3778736999E+05      0.3483842009E+02
          2                 2           0            34   89     1       0.1707082526E+02      34   89    1      -0.2964007308E+07      0.2964024696E+07      0.4247940766E+07      0.3483842009E+02
          3                 2           0            34   89     1       0.1194957748E+02      34   89    1      -0.2065255062E+07      0.2065317083E+07      0.2964024696E+07      0.3483842009E+02
          4                 2           0            34   89     1       0.8364704093E+01      34   89    1      -0.1436882944E+07      0.1437024740E+07      0.2065317083E+07      0.3483842009E+02
          5                 2           0            34   89     1       0.5855292766E+01      34   89    1      -0.9973361275E+06      0.9976039710E+06      0.1437024740E+07      0.3483842009E+02
          6                 2           0            34   89     1       0.4098704866E+01      34   89    1      -0.6896533675E+06      0.6901123693E+06      0.9976039710E+06      0.3483842009E+02
          7                 2           0            34   89     1       0.2869093357E+01      34   89    1      -0.4742754421E+06      0.4750208421E+06      0.6901123693E+06      0.3483842009E+02
          8                 2           0            34   89     1       0.2008365316E+01      34   89    1      -0.3235108983E+06      0.3246865583E+06      0.4750208421E+06      0.3483842009E+02
                                                   Max.-Head-Change                        Max.-Flux-Residual
  Residual-Control   Outer-Iter.   Inner-Iter.     Column Row Layer    Max.-Head-Change    Column Row Layer    Max.-Flux-Residual            L2-New               L2-Old           Solver-Max-Delh
          9                 2           0            34   89     1       0.1405855697E+01      34   89    1      -0.2179757201E+06      0.2198062634E+06      0.3246865583E+06      0.3483842009E+02
         10                 2           0            34   89     1       0.9840989713E+00      34   89    1      -0.1441010970E+06      0.1469510697E+06      0.2198062634E+06      0.3483842009E+02
         11                 2           0            34   89     1       0.6888692682E+00      34   89    1      -0.9238886190E+05      0.9687703118E+05      0.1469510697E+06      0.3483842009E+02
         12                 2           0            34   89     1       0.4822084795E+00      34   89    1      -0.5619029800E+05      0.6341076337E+05      0.9687703118E+05      0.3483842009E+02
         13                 2           0            34   89     1       0.3375459299E+00      34   89    1      -0.3085130375E+05      0.4272388171E+05      0.6341076337E+05      0.3483842009E+02
          0                 3           2            36   83     1       0.1486994198E+00      38   72    1      -0.1532642716E+05      0.3244232608E+05      0.4272388171E+05      0.1486994198E+00
          0                 4           2            36   83     1       0.1481940624E+00      38   72    1      -0.7661708382E+03      0.1621951167E+04      0.3244232608E+05      0.1481940624E+00

    ------------------------------------------------
       NWT REQUIRED            4 OUTER ITERATIONS 
       AND A TOTAL OF          8 INNER ITERATIONS.
    ------------------------------------------------

 OUTPUT CONTROL FOR STRESS PERIOD    1   TIME STEP   28
    SAVE HEAD FOR ALL LAYERS
    SAVE DRAWDOWN FOR ALL LAYERS
    SAVE BUDGET
    PRINT BUDGET
 UBDSV1 SAVING "         STORAGE" ON UNIT   9 AT TIME STEP 28, STRESS PERIOD   1
 UBDSV2 SAVING "   CONSTANT HEAD" ON UNIT   9 AT TIME STEP 28, STRESS PERIOD   1
 UBDSV1 SAVING "FLOW RIGHT FACE " ON UNIT   9 AT TIME STEP 28, STRESS PERIOD   1
 UBDSV1 SAVING "FLOW FRONT FACE " ON UNIT   9 AT TIME STEP 28, STRESS PERIOD   1
 UBDSV4 SAVING "   RIVER LEAKAGE" ON UNIT   9 AT TIME STEP 28, STRESS PERIOD   1
 UBDSV3 SAVING "        RECHARGE" ON UNIT   9 AT TIME STEP 28, STRESS PERIOD   1

 HEAD WILL BE SAVED ON UNIT   37 AT END OF TIME STEP   28, STRESS PERIOD    1

 DRAWDOWN WILL BE SAVED ON UNIT   38 AT END OF TIME STEP   28, STRESS PERIOD    1
1
  VOLUMETRIC BUDGET FOR ENTIRE MODEL AT END OF TIME STEP   28, STRESS PERIOD   1
  ------------------------------------------------------------------------------

     CUMULATIVE VOLUMES      L**3       RATES FOR THIS TIME STEP      L**3/T
     ------------------                 ------------------------

           IN:                                      IN:
           ---                                      ---
             STORAGE =    26398472.0000               STORAGE =      933567.4375
       CONSTANT HEAD =           0.0000         CONSTANT HEAD =           0.0000
       RIVER LEAKAGE =    77636584.0000         RIVER LEAKAGE =     1380393.8750
            RECHARGE =        1010.0859              RECHARGE =       2.8897E-02

            TOTAL IN =   104036064.0000              TOTAL IN =     2313961.2500

          OUT:                                     OUT:
          ----                                     ----
             STORAGE =   104005264.0000               STORAGE =     2311255.5000
       CONSTANT HEAD =           0.0000         CONSTANT HEAD =           0.0000
       RIVER LEAKAGE =       44848.4609         RIVER LEAKAGE =        2951.9148
            RECHARGE =           0.0000              RECHARGE =           0.0000

           TOTAL OUT =   104050112.0000             TOTAL OUT =     2314207.5000

            IN - OUT =      -14048.0000              IN - OUT =        -246.2500

 PERCENT DISCREPANCY =          -0.01     PERCENT DISCREPANCY =          -0.01






         TIME SUMMARY AT END OF TIME STEP   28 IN STRESS PERIOD    1
                    SECONDS     MINUTES      HOURS       DAYS        YEARS
                    -----------------------------------------------------------
   TIME STEP LENGTH  86400.      1440.0      24.000      1.0000     2.73785E-03
 STRESS PERIOD TIME 2.41920E+06  40320.      672.00      28.000     7.66598E-02
         TOTAL TIME 2.41920E+06  40320.      672.00      28.000     7.66598E-02
1
 
 SOLVING FOR HEAD 
                                                   Max.-Head-Change                        Max.-Flux-Residual
  Residual-Control   Outer-Iter.   Inner-Iter.     Column Row Layer    Max.-Head-Change    Column Row Layer    Max.-Flux-Residual            L2-New               L2-Old           Solver-Max-Delh
          0                 1           2            34   89     1       0.2857165653E+01      34   89    1       0.3184710419E+06      0.4319616777E+06      0.8302595307E+02      0.2857165653E+01
          0                 2           2            38   72     1       0.1755861006E+03      38   72    1       0.7877140464E+05      0.8849780784E+05      0.4319616777E+06      0.1755861006E+03
          1                 2           0            38   72     1       0.1229102683E+03      38   72    1      -0.1045559212E+08      0.1045559583E+08      0.8849780784E+05      0.1755861006E+03
          2                 2           0            38   72     1       0.8603718634E+02      38   72    1      -0.7294105714E+07      0.7294120089E+07      0.1045559583E+08      0.1755861006E+03
          3                 2           0            38   72     1       0.6022602942E+02      38   72    1      -0.5081065265E+07      0.5081111814E+07      0.7294120089E+07      0.1755861006E+03
          4                 2           0            38   72     1       0.4215821987E+02      38   72    1      -0.3531936978E+07      0.3532041884E+07      0.5081111814E+07      0.1755861006E+03
          5                 2           0            38   72     1       0.2951075341E+02      38   72    1      -0.2447850841E+07      0.2448048864E+07      0.3532041884E+07      0.1755861006E+03
          6                 2           0            38   72     1       0.2065752703E+02      38   72    1      -0.1689759982E+07      0.1690099911E+07      0.2448048864E+07      0.1755861006E+03
          7                 2           0            38   72     1       0.1446026868E+02      38   72    1      -0.1159096522E+07      0.1159650091E+07      0.1690099911E+07      0.1755861006E+03
          8                 2           0            38   72     1       0.1012218790E+02      38   72    1      -0.7876321710E+06      0.7885091935E+06      0.1159650091E+07      0.1755861006E+03
                                                   Max.-Head-Change                        Max.-Flux-Residual
  Residual-Control   Outer-Iter.   Inner-Iter.     Column Row Layer    Max.-Head-Change    Column Row Layer    Max.-Flux-Residual            L2-New               L2-Old           Solver-Max-Delh
          9                 2           0            38   72     1       0.7085531411E+01      38   72    1      -0.5276071614E+06      0.5289829081E+06      0.7885091935E+06      0.1755861006E+03
         10                 2           0            38   72     1       0.4959871903E+01      38   72    1      -0.3455896733E+06      0.3477596781E+06      0.5289829081E+06      0.1755861006E+03
         11                 2           0            38   72     1       0.3471910273E+01      38   72    1      -0.2181774414E+06      0.2216803352E+06      0.3477596781E+06      0.1755861006E+03
         12                 2           0            38   72     1       0.2430337150E+01      38   72    1      -0.1289888843E+06      0.1349240770E+06      0.2216803352E+06      0.1755861006E+03
          0                 3           2            38   72     1      -0.1054874188E+01      38   72    1      -0.6655689719E+05      0.7755153177E+05      0.1349240770E+06     -0.1054874188E+01
          0                 4           2            36   83     1       0.1518238080E+00      38   72    1      -0.3327843532E+04      0.3877420657E+04      0.7755153177E+05      0.1518238080E+00

    ------------------------------------------------
       NWT REQUIRED            4 OUTER ITERATIONS 
       AND A TOTAL OF          8 INNER ITERATIONS.
    ------------------------------------------------

 OUTPUT CONTROL FOR STRESS PERIOD    1   TIME STEP   29
    SAVE HEAD FOR ALL LAYERS
    SAVE DRAWDOWN FOR ALL LAYERS
    SAVE BUDGET
    PRINT BUDGET
 UBDSV1 SAVING "         STORAGE" ON UNIT   9 AT TIME STEP 29, STRESS PERIOD   1
 UBDSV2 SAVING "   CONSTANT HEAD" ON UNIT   9 AT TIME STEP 29, STRESS PERIOD   1
 UBDSV1 SAVING "FLOW RIGHT FACE " ON UNIT   9 AT TIME STEP 29, STRESS PERIOD   1
 UBDSV1 SAVING "FLOW FRONT FACE " ON UNIT   9 AT TIME STEP 29, STRESS PERIOD   1
 UBDSV4 SAVING "   RIVER LEAKAGE" ON UNIT   9 AT TIME STEP 29, STRESS PERIOD   1
 UBDSV3 SAVING "        RECHARGE" ON UNIT   9 AT TIME STEP 29, STRESS PERIOD   1

 HEAD WILL BE SAVED ON UNIT   37 AT END OF TIME STEP   29, STRESS PERIOD    1

 DRAWDOWN WILL BE SAVED ON UNIT   38 AT END OF TIME STEP   29, STRESS PERIOD    1
1
  VOLUMETRIC BUDGET FOR ENTIRE MODEL AT END OF TIME STEP   29, STRESS PERIOD   1
  ------------------------------------------------------------------------------

     CUMULATIVE VOLUMES      L**3       RATES FOR THIS TIME STEP      L**3/T
     ------------------                 ------------------------

           IN:                                      IN:
           ---                                      ---
             STORAGE =    27331362.0000               STORAGE =      932889.2500
       CONSTANT HEAD =           0.0000         CONSTANT HEAD =           0.0000
       RIVER LEAKAGE =    78621784.0000         RIVER LEAKAGE =      985201.3125
            RECHARGE =        1010.1085              RECHARGE =       2.2609E-02

            TOTAL IN =   105954152.0000              TOTAL IN =     1918090.5000

          OUT:                                     OUT:
          ----                                     ----
             STORAGE =   105920808.0000               STORAGE =     1915541.3750
       CONSTANT HEAD =           0.0000         CONSTANT HEAD =           0.0000
       RIVER LEAKAGE =       47799.9688         RIVER LEAKAGE =        2951.5095
            RECHARGE =           0.0000              RECHARGE =           0.0000

           TOTAL OUT =   105968608.0000             TOTAL OUT =     1918492.8750

            IN - OUT =      -14456.0000              IN - OUT =        -402.3750

 PERCENT DISCREPANCY =          -0.01     PERCENT DISCREPANCY =          -0.02






         TIME SUMMARY AT END OF TIME STEP   29 IN STRESS PERIOD    1
                    SECONDS     MINUTES      HOURS       DAYS        YEARS
                    -----------------------------------------------------------
   TIME STEP LENGTH  86400.      1440.0      24.000      1.0000     2.73785E-03
 STRESS PERIOD TIME 2.50560E+06  41760.      696.00      29.000     7.93977E-02
         TOTAL TIME 2.50560E+06  41760.      696.00      29.000     7.93977E-02
1
 
 SOLVING FOR HEAD 
                                                   Max.-Head-Change                        Max.-Flux-Residual
  Residual-Control   Outer-Iter.   Inner-Iter.     Column Row Layer    Max.-Head-Change    Column Row Layer    Max.-Flux-Residual            L2-New               L2-Old           Solver-Max-Delh
          0                 1           2            38   72     1       0.1393407664E+01      31  111    1       0.1465931523E+06      0.2588303984E+06      0.1947003784E+03      0.1393407664E+01
          0                 2           2            36   83     1       0.1558763923E+00      31  111    1      -0.1465970451E+05      0.2588400696E+05      0.2588303984E+06      0.1558763923E+00
          0                 3           2            36   83     1       0.1553091119E+00      31  111    1      -0.7329877564E+03      0.1294345387E+04      0.2588400696E+05      0.1553091119E+00

    ------------------------------------------------
       NWT REQUIRED            3 OUTER ITERATIONS 
       AND A TOTAL OF          6 INNER ITERATIONS.
    ------------------------------------------------

 OUTPUT CONTROL FOR STRESS PERIOD    1   TIME STEP   30
    SAVE HEAD FOR ALL LAYERS
    SAVE DRAWDOWN FOR ALL LAYERS
    SAVE BUDGET
    PRINT BUDGET
 UBDSV1 SAVING "         STORAGE" ON UNIT   9 AT TIME STEP 30, STRESS PERIOD   1
 UBDSV2 SAVING "   CONSTANT HEAD" ON UNIT   9 AT TIME STEP 30, STRESS PERIOD   1
 UBDSV1 SAVING "FLOW RIGHT FACE " ON UNIT   9 AT TIME STEP 30, STRESS PERIOD   1
 UBDSV1 SAVING "FLOW FRONT FACE " ON UNIT   9 AT TIME STEP 30, STRESS PERIOD   1
 UBDSV4 SAVING "   RIVER LEAKAGE" ON UNIT   9 AT TIME STEP 30, STRESS PERIOD   1
 UBDSV3 SAVING "        RECHARGE" ON UNIT   9 AT TIME STEP 30, STRESS PERIOD   1

 HEAD WILL BE SAVED ON UNIT   37 AT END OF TIME STEP   30, STRESS PERIOD    1

 DRAWDOWN WILL BE SAVED ON UNIT   38 AT END OF TIME STEP   30, STRESS PERIOD    1
1
  VOLUMETRIC BUDGET FOR ENTIRE MODEL AT END OF TIME STEP   30, STRESS PERIOD   1
  ------------------------------------------------------------------------------

     CUMULATIVE VOLUMES      L**3       RATES FOR THIS TIME STEP      L**3/T
     ------------------                 ------------------------

           IN:                                      IN:
           ---                                      ---
             STORAGE =    28263638.0000               STORAGE =      932276.5625
       CONSTANT HEAD =           0.0000         CONSTANT HEAD =           0.0000
       RIVER LEAKAGE =    79532880.0000         RIVER LEAKAGE =      911095.6875
            RECHARGE =        1010.1262              RECHARGE =       1.7721E-02

            TOTAL IN =   107797528.0000              TOTAL IN =     1843372.2500

          OUT:                                     OUT:
          ----                                     ----
             STORAGE =   107759432.0000               STORAGE =     1838626.2500
       CONSTANT HEAD =           0.0000         CONSTANT HEAD =           0.0000
       RIVER LEAKAGE =       52722.4453         RIVER LEAKAGE =        4922.4785
            RECHARGE =           0.0000              RECHARGE =           0.0000

           TOTAL OUT =   107812152.0000             TOTAL OUT =     1843548.7500

            IN - OUT =      -14624.0000              IN - OUT =        -176.5000

 PERCENT DISCREPANCY =          -0.01     PERCENT DISCREPANCY =          -0.01






         TIME SUMMARY AT END OF TIME STEP   30 IN STRESS PERIOD    1
                    SECONDS     MINUTES      HOURS       DAYS        YEARS
                    -----------------------------------------------------------
   TIME STEP LENGTH  86400.      1440.0      24.000      1.0000     2.73785E-03
 STRESS PERIOD TIME 2.59200E+06  43200.      720.00      30.000     8.21355E-02
         TOTAL TIME 2.59200E+06  43200.      720.00      30.000     8.21355E-02
1
 
 SOLVING FOR HEAD 
                                                   Max.-Head-Change                        Max.-Flux-Residual
  Residual-Control   Outer-Iter.   Inner-Iter.     Column Row Layer    Max.-Head-Change    Column Row Layer    Max.-Flux-Residual            L2-New               L2-Old           Solver-Max-Delh
          0                 1           2            41   66     1       0.4952458479E+00      31  111    1       0.1465585174E+06      0.2473451161E+06      0.6740829325E+02      0.4952458479E+00
          0                 2           2            36   83     1       0.1592394531E+00      31  111    1      -0.1465624085E+05      0.2473551529E+05      0.2473451161E+06      0.1592394531E+00
          0                 3           2            36   83     1       0.1586407740E+00      31  111    1      -0.7328145718E+03      0.1236934818E+04      0.2473551529E+05      0.1586407740E+00

    ------------------------------------------------
       NWT REQUIRED            3 OUTER ITERATIONS 
       AND A TOTAL OF          6 INNER ITERATIONS.
    ------------------------------------------------

 OUTPUT CONTROL FOR STRESS PERIOD    1   TIME STEP   31
    SAVE HEAD FOR ALL LAYERS
    SAVE DRAWDOWN FOR ALL LAYERS
    SAVE BUDGET
    PRINT BUDGET
 UBDSV1 SAVING "         STORAGE" ON UNIT   9 AT TIME STEP 31, STRESS PERIOD   1
 UBDSV2 SAVING "   CONSTANT HEAD" ON UNIT   9 AT TIME STEP 31, STRESS PERIOD   1
 UBDSV1 SAVING "FLOW RIGHT FACE " ON UNIT   9 AT TIME STEP 31, STRESS PERIOD   1
 UBDSV1 SAVING "FLOW FRONT FACE " ON UNIT   9 AT TIME STEP 31, STRESS PERIOD   1
 UBDSV4 SAVING "   RIVER LEAKAGE" ON UNIT   9 AT TIME STEP 31, STRESS PERIOD   1
 UBDSV3 SAVING "        RECHARGE" ON UNIT   9 AT TIME STEP 31, STRESS PERIOD   1

 HEAD WILL BE SAVED ON UNIT   37 AT END OF TIME STEP   31, STRESS PERIOD    1

 DRAWDOWN WILL BE SAVED ON UNIT   38 AT END OF TIME STEP   31, STRESS PERIOD    1
1
  VOLUMETRIC BUDGET FOR ENTIRE MODEL AT END OF TIME STEP   31, STRESS PERIOD   1
  ------------------------------------------------------------------------------

     CUMULATIVE VOLUMES      L**3       RATES FOR THIS TIME STEP      L**3/T
     ------------------                 ------------------------

           IN:                                      IN:
           ---                                      ---
             STORAGE =    29195300.0000               STORAGE =      931661.3750
       CONSTANT HEAD =           0.0000         CONSTANT HEAD =           0.0000
       RIVER LEAKAGE =    80443968.0000         RIVER LEAKAGE =      911090.3125
            RECHARGE =        1010.1401              RECHARGE =       1.3912E-02

            TOTAL IN =   109640272.0000              TOTAL IN =     1842751.7500

          OUT:                                     OUT:
          ----                                     ----
             STORAGE =   109597144.0000               STORAGE =     1837714.8750
       CONSTANT HEAD =           0.0000         CONSTANT HEAD =           0.0000
       RIVER LEAKAGE =       57914.9023         RIVER LEAKAGE =        5192.4585
            RECHARGE =           0.0000              RECHARGE =           0.0000

           TOTAL OUT =   109655056.0000             TOTAL OUT =     1842907.3750

            IN - OUT =      -14784.0000              IN - OUT =        -155.6250

 PERCENT DISCREPANCY =          -0.01     PERCENT DISCREPANCY =          -0.01






         TIME SUMMARY AT END OF TIME STEP   31 IN STRESS PERIOD    1
                    SECONDS     MINUTES      HOURS       DAYS        YEARS
                    -----------------------------------------------------------
   TIME STEP LENGTH  86400.      1440.0      24.000      1.0000     2.73785E-03
 STRESS PERIOD TIME 2.67840E+06  44640.      744.00      31.000     8.48734E-02
         TOTAL TIME 2.67840E+06  44640.      744.00      31.000     8.48734E-02
1
 
 SOLVING FOR HEAD 
                                                   Max.-Head-Change                        Max.-Flux-Residual
  Residual-Control   Outer-Iter.   Inner-Iter.     Column Row Layer    Max.-Head-Change    Column Row Layer    Max.-Flux-Residual            L2-New               L2-Old           Solver-Max-Delh
          0                 1           2            41   66     1       0.4952068118E+00      31  111    1       0.1465236657E+06      0.2472396945E+06      0.6479674917E+02      0.4952068118E+00
          0                 2           2            36   83     1       0.1624473180E+00      31  111    1      -0.1465275549E+05      0.2472497326E+05      0.2472396945E+06      0.1624473180E+00
          0                 3           2            36   83     1       0.1618170457E+00      36   38    1      -0.3378214666E+04      0.3597367687E+04      0.2472497326E+05      0.1618170457E+00

    ------------------------------------------------
       NWT REQUIRED            3 OUTER ITERATIONS 
       AND A TOTAL OF          6 INNER ITERATIONS.
    ------------------------------------------------

 OUTPUT CONTROL FOR STRESS PERIOD    1   TIME STEP   32
    SAVE HEAD FOR ALL LAYERS
    SAVE DRAWDOWN FOR ALL LAYERS
    SAVE BUDGET
    PRINT BUDGET
 UBDSV1 SAVING "         STORAGE" ON UNIT   9 AT TIME STEP 32, STRESS PERIOD   1
 UBDSV2 SAVING "   CONSTANT HEAD" ON UNIT   9 AT TIME STEP 32, STRESS PERIOD   1
 UBDSV1 SAVING "FLOW RIGHT FACE " ON UNIT   9 AT TIME STEP 32, STRESS PERIOD   1
 UBDSV1 SAVING "FLOW FRONT FACE " ON UNIT   9 AT TIME STEP 32, STRESS PERIOD   1
 UBDSV4 SAVING "   RIVER LEAKAGE" ON UNIT   9 AT TIME STEP 32, STRESS PERIOD   1
 UBDSV3 SAVING "        RECHARGE" ON UNIT   9 AT TIME STEP 32, STRESS PERIOD   1

 HEAD WILL BE SAVED ON UNIT   37 AT END OF TIME STEP   32, STRESS PERIOD    1

 DRAWDOWN WILL BE SAVED ON UNIT   38 AT END OF TIME STEP   32, STRESS PERIOD    1
1
  VOLUMETRIC BUDGET FOR ENTIRE MODEL AT END OF TIME STEP   32, STRESS PERIOD   1
  ------------------------------------------------------------------------------

     CUMULATIVE VOLUMES      L**3       RATES FOR THIS TIME STEP      L**3/T
     ------------------                 ------------------------

           IN:                                      IN:
           ---                                      ---
             STORAGE =    30126346.0000               STORAGE =      931046.8125
       CONSTANT HEAD =           0.0000         CONSTANT HEAD =           0.0000
       RIVER LEAKAGE =    81355056.0000         RIVER LEAKAGE =      911086.6875
            RECHARGE =        1010.1511              RECHARGE =       1.0937E-02

            TOTAL IN =   111482408.0000              TOTAL IN =     1842133.5000

          OUT:                                     OUT:
          ----                                     ----
             STORAGE =   111434408.0000               STORAGE =     1837262.2500
       CONSTANT HEAD =           0.0000         CONSTANT HEAD =           0.0000
       RIVER LEAKAGE =       63110.2109         RIVER LEAKAGE =        5195.3096
            RECHARGE =           0.0000              RECHARGE =           0.0000

           TOTAL OUT =   111497520.0000             TOTAL OUT =     1842457.5000

            IN - OUT =      -15112.0000              IN - OUT =        -324.0000

 PERCENT DISCREPANCY =          -0.01     PERCENT DISCREPANCY =          -0.02






         TIME SUMMARY AT END OF TIME STEP   32 IN STRESS PERIOD    1
                    SECONDS     MINUTES      HOURS       DAYS        YEARS
                    -----------------------------------------------------------
   TIME STEP LENGTH  86400.      1440.0      24.000      1.0000     2.73785E-03
 STRESS PERIOD TIME 2.76480E+06  46080.      768.00      32.000     8.76112E-02
         TOTAL TIME 2.76480E+06  46080.      768.00      32.000     8.76112E-02
1
 
 SOLVING FOR HEAD 
                                                   Max.-Head-Change                        Max.-Flux-Residual
  Residual-Control   Outer-Iter.   Inner-Iter.     Column Row Layer    Max.-Head-Change    Column Row Layer    Max.-Flux-Residual            L2-New               L2-Old           Solver-Max-Delh
          0                 1           2            41   66     1       0.4951681137E+00      31  111    1       0.1464886192E+06      0.2471438635E+06      0.1809567015E+03      0.4951681137E+00
          0                 2           2            36   83     1       0.1654984367E+00      31  111    1      -0.1464925066E+05      0.2471539021E+05      0.2471438635E+06      0.1654984367E+00
          0                 3           2            36   83     1       0.1648364396E+00      31  111    1      -0.7324650598E+03      0.1235942225E+04      0.2471539021E+05      0.1648364396E+00
          1                 3           0            36   83     1       0.1153855057E+00      36   83    1      -0.1416132487E+06      0.1416132628E+06      0.1235942225E+04      0.1648364396E+00
          2                 3           0            36   83     1       0.8076985264E-01      36   83    1      -0.9216151044E+05      0.9216244120E+05      0.1416132628E+06      0.1648364396E+00
          3                 3           0            36   83     1       0.5653889588E-01      36   83    1      -0.5754532338E+05      0.5754911562E+05      0.9216244120E+05      0.1648364396E+00
          4                 3           0            36   83     1       0.3957722644E-01      36   83    1      -0.3331400710E+05      0.3332442497E+05      0.5754911562E+05      0.1648364396E+00
          5                 3           0            36   83     1       0.2770405804E-01      36   83    1      -0.1635209299E+05      0.1637989782E+05      0.3332442497E+05      0.1648364396E+00
          6                 3           0            36   83     1       0.1939284030E-01      36   83    1      -0.4478756733E+04      0.4597591727E+04      0.1637989782E+05      0.1648364396E+00
          0                 4           2            36   83     1       0.1647586760E+00      31  111    1      -0.6505991117E+03      0.1097843206E+04      0.4597591727E+04      0.1647586760E+00
                                                   Max.-Head-Change                        Max.-Flux-Residual
  Residual-Control   Outer-Iter.   Inner-Iter.     Column Row Layer    Max.-Head-Change    Column Row Layer    Max.-Flux-Residual            L2-New               L2-Old           Solver-Max-Delh
          1                 4           0            36   83     1       0.1153310713E+00      36   83    1      -0.1609286526E+06      0.1609286626E+06      0.1097843206E+04      0.1647586760E+00
          2                 4           0            36   83     1       0.8073174850E-01      36   83    1      -0.1115002248E+06      0.1115008320E+06      0.1609286626E+06      0.1647586760E+00
          3                 4           0            36   83     1       0.5651222299E-01      36   83    1      -0.7690035503E+05      0.7690259417E+05      0.1115008320E+06      0.1647586760E+00
          4                 4           0            36   83     1       0.3955855542E-01      36   83    1      -0.5268046082E+05      0.5268565938E+05      0.7690259417E+05      0.1647586760E+00
          5                 4           0            36   83     1       0.2769098832E-01      36   83    1      -0.3572654215E+05      0.3573659026E+05      0.5268565938E+05      0.1647586760E+00
          6                 4           0            36   83     1       0.1938369150E-01      36   83    1      -0.2385880270E+05      0.2387663001E+05      0.3573659026E+05      0.1647586760E+00
          7                 4           0            36   83     1       0.1356858382E-01      36   83    1      -0.1555138690E+05      0.1558192511E+05      0.2387663001E+05      0.1647586760E+00
          8                 4           0            36   83     1       0.9498008509E-02      36   83    1      -0.9736196762E+04      0.9788636562E+04      0.1558192511E+05      0.1647586760E+00
          9                 4           0            36   83     1       0.6648605843E-02      36   83    1      -0.5665564137E+04      0.5759799749E+04      0.9788636562E+04      0.1647586760E+00
         10                 4           0            36   83     1       0.4654024011E-02      36   83    1      -0.2816121546E+04      0.3007484840E+04      0.5759799749E+04      0.1647586760E+00
                                                   Max.-Head-Change                        Max.-Flux-Residual
  Residual-Control   Outer-Iter.   Inner-Iter.     Column Row Layer    Max.-Head-Change    Column Row Layer    Max.-Flux-Residual            L2-New               L2-Old           Solver-Max-Delh
         11                 4           0            36   83     1       0.3257816752E-02      36   83    1      -0.8215118618E+03      0.1347633899E+04      0.3007484840E+04      0.1647586760E+00
          0                 5           2            36   83     1       0.1647456123E+00      31  111    1      -0.6383776097E+03      0.1077227307E+04      0.1347633899E+04      0.1647456123E+00
          1                 5           0            36   83     1       0.1153219266E+00      36   83    1      -0.1641734614E+06      0.1641734707E+06      0.1077227307E+04      0.1647456123E+00
          2                 5           0            36   83     1       0.8072534727E-01      36   83    1      -0.1147489495E+06      0.1147495175E+06      0.1641734707E+06      0.1647456123E+00
          3                 5           0            36   83     1       0.5650774213E-01      36   83    1      -0.8015182092E+05      0.8015388928E+05      0.1147495175E+06      0.1647456123E+00
          4                 5           0            36   83     1       0.3955541882E-01      36   83    1      -0.5593384555E+05      0.5593855955E+05      0.8015388928E+05      0.1647456123E+00
          5                 5           0            36   83     1       0.2768879270E-01      36   83    1      -0.3898127005E+05      0.3899013673E+05      0.5593855955E+05      0.1647456123E+00
          6                 5           0            36   83     1       0.1938215456E-01      36   83    1      -0.2711447082E+05      0.2712957528E+05      0.3899013673E+05      0.1647456123E+00
          7                 5           0            36   83     1       0.1356750796E-01      36   83    1      -0.1880771318E+05      0.1883203258E+05      0.2712957528E+05      0.1647456123E+00
          8                 5           0            36   83     1       0.9497255411E-02      36   83    1      -0.1299298375E+05      0.1303086354E+05      0.1883203258E+05      0.1647456123E+00
                                                   Max.-Head-Change                        Max.-Flux-Residual
  Residual-Control   Outer-Iter.   Inner-Iter.     Column Row Layer    Max.-Head-Change    Column Row Layer    Max.-Flux-Residual            L2-New               L2-Old           Solver-Max-Delh
          9                 5           0            36   83     1       0.6648078674E-02      36   83    1      -0.8922673626E+04      0.8980574348E+04      0.1303086354E+05      0.1647456123E+00
         10                 5           0            36   83     1       0.4653654993E-02      36   83    1      -0.6073456782E+04      0.6161155094E+04      0.8980574348E+04      0.1647456123E+00
         11                 5           0            36   83     1       0.3257558440E-02      36   83    1      -0.4079005121E+04      0.4211537833E+04      0.6161155094E+04      0.1647456123E+00
         12                 5           0            36   83     1       0.2280290869E-02      36   83    1      -0.2682889031E+04      0.2883559191E+04      0.4211537833E+04      0.1647456123E+00
         13                 5           0            36   83     1       0.1596203581E-02      36   83    1      -0.1705607807E+04      0.2009722335E+04      0.2883559191E+04      0.1647456123E+00
         14                 5           0            36   83     1       0.1117342488E-02      36   83    1      -0.1021510973E+04      0.1477301748E+04      0.2009722335E+04      0.1647456123E+00
         15                 5           0            36   83     1       0.7821397281E-03      31  111    1      -0.6342643377E+03      0.1199897434E+04      0.1477301748E+04      0.1647456123E+00
          0                 6           2            36   40     1       0.1471266747E+00      31  111    1      -0.6354983194E+03      0.1092145516E+04      0.1199897434E+04      0.1471266747E+00

    ------------------------------------------------
       NWT REQUIRED            6 OUTER ITERATIONS 
       AND A TOTAL OF         12 INNER ITERATIONS.
    ------------------------------------------------

 OUTPUT CONTROL FOR STRESS PERIOD    1   TIME STEP   33
    SAVE HEAD FOR ALL LAYERS
    SAVE DRAWDOWN FOR ALL LAYERS
    SAVE BUDGET
    PRINT BUDGET
 UBDSV1 SAVING "         STORAGE" ON UNIT   9 AT TIME STEP 33, STRESS PERIOD   1
 UBDSV2 SAVING "   CONSTANT HEAD" ON UNIT   9 AT TIME STEP 33, STRESS PERIOD   1
 UBDSV1 SAVING "FLOW RIGHT FACE " ON UNIT   9 AT TIME STEP 33, STRESS PERIOD   1
 UBDSV1 SAVING "FLOW FRONT FACE " ON UNIT   9 AT TIME STEP 33, STRESS PERIOD   1
 UBDSV4 SAVING "   RIVER LEAKAGE" ON UNIT   9 AT TIME STEP 33, STRESS PERIOD   1
 UBDSV3 SAVING "        RECHARGE" ON UNIT   9 AT TIME STEP 33, STRESS PERIOD   1

 HEAD WILL BE SAVED ON UNIT   37 AT END OF TIME STEP   33, STRESS PERIOD    1

 DRAWDOWN WILL BE SAVED ON UNIT   38 AT END OF TIME STEP   33, STRESS PERIOD    1
1
  VOLUMETRIC BUDGET FOR ENTIRE MODEL AT END OF TIME STEP   33, STRESS PERIOD   1
  ------------------------------------------------------------------------------

     CUMULATIVE VOLUMES      L**3       RATES FOR THIS TIME STEP      L**3/T
     ------------------                 ------------------------

           IN:                                      IN:
           ---                                      ---
             STORAGE =    31056736.0000               STORAGE =      930390.1875
       CONSTANT HEAD =           0.0000         CONSTANT HEAD =           0.0000
       RIVER LEAKAGE =    82266448.0000         RIVER LEAKAGE =      911394.5625
            RECHARGE =        1010.1597              RECHARGE =       8.6093E-03

            TOTAL IN =   113324192.0000              TOTAL IN =     1841784.7500

          OUT:                                     OUT:
          ----                                     ----
             STORAGE =   113271152.0000               STORAGE =     1836744.7500
       CONSTANT HEAD =           0.0000         CONSTANT HEAD =           0.0000
       RIVER LEAKAGE =       68307.3906         RIVER LEAKAGE =        5197.1777
            RECHARGE =           0.0000              RECHARGE =           0.0000

           TOTAL OUT =   113339456.0000             TOTAL OUT =     1841941.8750

            IN - OUT =      -15264.0000              IN - OUT =        -157.1250

 PERCENT DISCREPANCY =          -0.01     PERCENT DISCREPANCY =          -0.01






         TIME SUMMARY AT END OF TIME STEP   33 IN STRESS PERIOD    1
                    SECONDS     MINUTES      HOURS       DAYS        YEARS
                    -----------------------------------------------------------
   TIME STEP LENGTH  86400.      1440.0      24.000      1.0000     2.73785E-03
 STRESS PERIOD TIME 2.85120E+06  47520.      792.00      33.000     9.03491E-02
         TOTAL TIME 2.85120E+06  47520.      792.00      33.000     9.03491E-02
1
 
 SOLVING FOR HEAD 
                                                   Max.-Head-Change                        Max.-Flux-Residual
  Residual-Control   Outer-Iter.   Inner-Iter.     Column Row Layer    Max.-Head-Change    Column Row Layer    Max.-Flux-Residual            L2-New               L2-Old           Solver-Max-Delh
          0                 1           2            41   66     1       0.4951289653E+00      31  111    1       0.1464533804E+06      0.2470382723E+06      0.5838343343E+02      0.4951289653E+00
          0                 2           2            36   40     1       0.1509669678E+00      31  111    1      -0.1464572660E+05      0.2509270906E+05      0.2470382723E+06      0.1509669678E+00
          0                 3           2            36   40     1       0.1505621162E+00      31  111    1      -0.7322888555E+03      0.1254721835E+04      0.2509270906E+05      0.1505621162E+00

    ------------------------------------------------
       NWT REQUIRED            3 OUTER ITERATIONS 
       AND A TOTAL OF          6 INNER ITERATIONS.
    ------------------------------------------------

 OUTPUT CONTROL FOR STRESS PERIOD    1   TIME STEP   34
    SAVE HEAD FOR ALL LAYERS
    SAVE DRAWDOWN FOR ALL LAYERS
    SAVE BUDGET
    PRINT BUDGET
 UBDSV1 SAVING "         STORAGE" ON UNIT   9 AT TIME STEP 34, STRESS PERIOD   1
 UBDSV2 SAVING "   CONSTANT HEAD" ON UNIT   9 AT TIME STEP 34, STRESS PERIOD   1
 UBDSV1 SAVING "FLOW RIGHT FACE " ON UNIT   9 AT TIME STEP 34, STRESS PERIOD   1
 UBDSV1 SAVING "FLOW FRONT FACE " ON UNIT   9 AT TIME STEP 34, STRESS PERIOD   1
 UBDSV4 SAVING "   RIVER LEAKAGE" ON UNIT   9 AT TIME STEP 34, STRESS PERIOD   1
 UBDSV3 SAVING "        RECHARGE" ON UNIT   9 AT TIME STEP 34, STRESS PERIOD   1

 HEAD WILL BE SAVED ON UNIT   37 AT END OF TIME STEP   34, STRESS PERIOD    1

 DRAWDOWN WILL BE SAVED ON UNIT   38 AT END OF TIME STEP   34, STRESS PERIOD    1
1
  VOLUMETRIC BUDGET FOR ENTIRE MODEL AT END OF TIME STEP   34, STRESS PERIOD   1
  ------------------------------------------------------------------------------

     CUMULATIVE VOLUMES      L**3       RATES FOR THIS TIME STEP      L**3/T
     ------------------                 ------------------------

           IN:                                      IN:
           ---                                      ---
             STORAGE =    31986544.0000               STORAGE =      929807.7500
       CONSTANT HEAD =           0.0000         CONSTANT HEAD =           0.0000
       RIVER LEAKAGE =    83177840.0000         RIVER LEAKAGE =      911391.0000
            RECHARGE =        1010.1664              RECHARGE =       6.7851E-03

            TOTAL IN =   115165392.0000              TOTAL IN =     1841198.7500

          OUT:                                     OUT:
          ----                                     ----
             STORAGE =   115107576.0000               STORAGE =     1836424.3750
       CONSTANT HEAD =           0.0000         CONSTANT HEAD =           0.0000
       RIVER LEAKAGE =       73506.4375         RIVER LEAKAGE =        5199.0464
            RECHARGE =           0.0000              RECHARGE =           0.0000

           TOTAL OUT =   115181080.0000             TOTAL OUT =     1841623.3750

            IN - OUT =      -15688.0000              IN - OUT =        -424.6250

 PERCENT DISCREPANCY =          -0.01     PERCENT DISCREPANCY =          -0.02






         TIME SUMMARY AT END OF TIME STEP   34 IN STRESS PERIOD    1
                    SECONDS     MINUTES      HOURS       DAYS        YEARS
                    -----------------------------------------------------------
   TIME STEP LENGTH  86400.      1440.0      24.000      1.0000     2.73785E-03
 STRESS PERIOD TIME 2.93760E+06  48960.      816.00      34.000     9.30869E-02
         TOTAL TIME 2.93760E+06  48960.      816.00      34.000     9.30869E-02
1
 
 SOLVING FOR HEAD 
                                                   Max.-Head-Change                        Max.-Flux-Residual
  Residual-Control   Outer-Iter.   Inner-Iter.     Column Row Layer    Max.-Head-Change    Column Row Layer    Max.-Flux-Residual            L2-New               L2-Old           Solver-Max-Delh
          0                 1           2            41   66     1       0.4950897225E+00      31  111    1       0.1464179230E+06      0.2469325276E+06      0.2536880738E+03      0.4950897225E+00
          0                 2           2            41   66     1       0.1461892042E+01      16  126    1      -0.3999116644E+05      0.5245629433E+05      0.2469325276E+06      0.1461892042E+01
          0                 3           2            36   40     1       0.1539093302E+00      41   66    1      -0.2372571338E+04      0.3331858619E+04      0.5245629433E+05      0.1539093302E+00
          0                 4           2            36   40     1       0.1534834323E+00      51   30    1      -0.6836831823E+03      0.7038140183E+03      0.3331858619E+04      0.1534834323E+00

    ------------------------------------------------
       NWT REQUIRED            4 OUTER ITERATIONS 
       AND A TOTAL OF          8 INNER ITERATIONS.
    ------------------------------------------------

 OUTPUT CONTROL FOR STRESS PERIOD    1   TIME STEP   35
    SAVE HEAD FOR ALL LAYERS
    SAVE DRAWDOWN FOR ALL LAYERS
    SAVE BUDGET
    PRINT BUDGET
 UBDSV1 SAVING "         STORAGE" ON UNIT   9 AT TIME STEP 35, STRESS PERIOD   1
 UBDSV2 SAVING "   CONSTANT HEAD" ON UNIT   9 AT TIME STEP 35, STRESS PERIOD   1
 UBDSV1 SAVING "FLOW RIGHT FACE " ON UNIT   9 AT TIME STEP 35, STRESS PERIOD   1
 UBDSV1 SAVING "FLOW FRONT FACE " ON UNIT   9 AT TIME STEP 35, STRESS PERIOD   1
 UBDSV4 SAVING "   RIVER LEAKAGE" ON UNIT   9 AT TIME STEP 35, STRESS PERIOD   1
 UBDSV3 SAVING "        RECHARGE" ON UNIT   9 AT TIME STEP 35, STRESS PERIOD   1

 HEAD WILL BE SAVED ON UNIT   37 AT END OF TIME STEP   35, STRESS PERIOD    1

 DRAWDOWN WILL BE SAVED ON UNIT   38 AT END OF TIME STEP   35, STRESS PERIOD    1
1
  VOLUMETRIC BUDGET FOR ENTIRE MODEL AT END OF TIME STEP   35, STRESS PERIOD   1
  ------------------------------------------------------------------------------

     CUMULATIVE VOLUMES      L**3       RATES FOR THIS TIME STEP      L**3/T
     ------------------                 ------------------------

           IN:                                      IN:
           ---                                      ---
             STORAGE =    32915518.0000               STORAGE =      928974.4375
       CONSTANT HEAD =           0.0000         CONSTANT HEAD =           0.0000
       RIVER LEAKAGE =    84061792.0000         RIVER LEAKAGE =      883948.6250
            RECHARGE =        1010.1718              RECHARGE =       5.3531E-03

            TOTAL IN =   116978320.0000              TOTAL IN =     1812923.0000

          OUT:                                     OUT:
          ----                                     ----
             STORAGE =   116915304.0000               STORAGE =     1807727.2500
       CONSTANT HEAD =           0.0000         CONSTANT HEAD =           0.0000
       RIVER LEAKAGE =       78707.3828         RIVER LEAKAGE =        5200.9429
            RECHARGE =           0.0000              RECHARGE =           0.0000

           TOTAL OUT =   116994008.0000             TOTAL OUT =     1812928.2500

            IN - OUT =      -15688.0000              IN - OUT =          -5.2500

 PERCENT DISCREPANCY =          -0.01     PERCENT DISCREPANCY =          -0.00






         TIME SUMMARY AT END OF TIME STEP   35 IN STRESS PERIOD    1
                    SECONDS     MINUTES      HOURS       DAYS        YEARS
                    -----------------------------------------------------------
   TIME STEP LENGTH  86400.      1440.0      24.000      1.0000     2.73785E-03
 STRESS PERIOD TIME 3.02400E+06  50400.      840.00      35.000     9.58248E-02
         TOTAL TIME 3.02400E+06  50400.      840.00      35.000     9.58248E-02
1
 
 SOLVING FOR HEAD 
                                                   Max.-Head-Change                        Max.-Flux-Residual
  Residual-Control   Outer-Iter.   Inner-Iter.     Column Row Layer    Max.-Head-Change    Column Row Layer    Max.-Flux-Residual            L2-New               L2-Old           Solver-Max-Delh
          0                 1           2            41   66     1       0.1087031184E+01      31  111    1       0.1463822866E+06      0.2433154025E+06      0.3855981371E+02      0.1087031184E+01
          0                 2           2            36   40     1       0.1571800265E+00      31  111    1      -0.1463861685E+05      0.2433209959E+05      0.2433154025E+06      0.1571800265E+00
          0                 3           2            36   40     1       0.1567337702E+00      31  111    1      -0.7319333653E+03      0.1216687436E+04      0.2433209959E+05      0.1567337702E+00

    ------------------------------------------------
       NWT REQUIRED            3 OUTER ITERATIONS 
       AND A TOTAL OF          6 INNER ITERATIONS.
    ------------------------------------------------

 OUTPUT CONTROL FOR STRESS PERIOD    1   TIME STEP   36
    SAVE HEAD FOR ALL LAYERS
    SAVE DRAWDOWN FOR ALL LAYERS
    SAVE BUDGET
    PRINT BUDGET
 UBDSV1 SAVING "         STORAGE" ON UNIT   9 AT TIME STEP 36, STRESS PERIOD   1
